<?xml version="1.0" encoding="UTF-8"?>

<!-- generated on Fri Mar  4 14:31:06 2022 by Eclipse SUMO duarouter Version 1.8.0
<configuration xmlns:xsi="http://www.w3.org/2001/XMLSchema-instance" xsi:noNamespaceSchemaLocation="http://sumo.dlr.de/xsd/duarouterConfiguration.xsd">

    <input>
        <net-file value="/home/veins/src/sumo-1.8.0/tools/2022-03-04-14-30-52/osm.net.xml"/>
        <route-files value="/home/veins/src/sumo-1.8.0/tools/2022-03-04-14-30-52/osm.passenger.trips.xml"/>
    </input>

    <output>
        <output-file value="/home/veins/src/sumo-1.8.0/tools/2022-03-04-14-30-52/osm.passenger.trips.xml.tmp"/>
        <write-trips value="true"/>
    </output>

    <time>
        <begin value="0"/>
        <end value="3600"/>
    </time>

    <report>
        <no-warnings value="true"/>
        <ignore-errors value="true"/>
        <no-step-log value="true"/>
    </report>

</configuration>
-->

<routes xmlns:xsi="http://www.w3.org/2001/XMLSchema-instance" xsi:noNamespaceSchemaLocation="http://sumo.dlr.de/xsd/routes_file.xsd">
    <vType id="veh_passenger" vClass="passenger"/>
    <trip id="veh0" type="veh_passenger" depart="0.00" departLane="best" from="311525772#0" to="-159184236#1"/>
    <trip id="veh1" type="veh_passenger" depart="3.32" departLane="best" from="-606626813#1" to="-399818287#0"/>
    <trip id="veh2" type="veh_passenger" depart="6.64" departLane="best" from="399691536#3" to="399684423#6-AddedOnRampEdge"/>
    <trip id="veh3" type="veh_passenger" depart="9.96" departLane="best" from="163897702#2" to="-159184236#2"/>
    <trip id="veh4" type="veh_passenger" depart="13.28" departLane="best" from="-159175556#1" to="-399818277#3"/>
    <trip id="veh6" type="veh_passenger" depart="19.92" departLane="best" departSpeed="max" from="-399818283" to="301423736#1"/>
    <trip id="veh7" type="veh_passenger" depart="23.23" departLane="best" departSpeed="max" from="399818280#0" to="399691527#1"/>
    <trip id="veh8" type="veh_passenger" depart="26.55" departLane="best" from="159164658#0" to="-399818264#5"/>
    <trip id="veh9" type="veh_passenger" depart="29.87" departLane="best" from="853360427#1" to="159174737#3"/>
    <trip id="veh10" type="veh_passenger" depart="33.19" departLane="best" from="-27124503#0" to="-311525529#0"/>
    <trip id="veh13" type="veh_passenger" depart="43.15" departLane="best" departSpeed="max" from="460285037" to="311525703#7"/>
    <trip id="veh15" type="veh_passenger" depart="49.79" departLane="best" departSpeed="max" from="399691527#0" to="-23596750#2"/>
    <trip id="veh16" type="veh_passenger" depart="53.11" departLane="best" from="-27124500#1" to="-460525324#0"/>
    <trip id="veh17" type="veh_passenger" depart="56.43" departLane="best" departSpeed="max" from="-27124503#4" to="-930861974#0"/>
    <trip id="veh18" type="veh_passenger" depart="59.75" departLane="best" from="311525703#6" to="163897623#1-AddedOffRampEdge"/>
    <trip id="veh19" type="veh_passenger" depart="63.06" departLane="best" from="159184236#4" to="-399818279#0"/>
    <trip id="veh20" type="veh_passenger" depart="66.38" departLane="best" from="-606626810#1" to="836384754"/>
    <trip id="veh21" type="veh_passenger" depart="69.70" departLane="best" from="312021540#1" to="31033195#5"/>
    <trip id="veh23" type="veh_passenger" depart="76.34" departLane="best" from="27124497#6" to="399684424#0"/>
    <trip id="veh24" type="veh_passenger" depart="79.66" departLane="best" from="460525324#4" to="399818280#1"/>
    <trip id="veh25" type="veh_passenger" depart="82.98" departLane="best" from="-399818287#1" to="-159184236#5"/>
    <trip id="veh26" type="veh_passenger" depart="86.30" departLane="best" from="14617075#1" to="-625195082#0"/>
    <trip id="veh27" type="veh_passenger" depart="89.62" departLane="best" from="-399818280#1" to="836384754"/>
    <trip id="veh28" type="veh_passenger" depart="92.94" departLane="best" departSpeed="max" from="592550490" to="15172466#1-AddedOnRampEdge"/>
    <trip id="veh29" type="veh_passenger" depart="96.26" departLane="best" from="312021540#5" to="163897702#4"/>
    <trip id="veh31" type="veh_passenger" depart="102.90" departLane="best" departSpeed="max" from="-545001713#5" to="-606626810#0"/>
    <trip id="veh32" type="veh_passenger" depart="106.21" departLane="best" from="163897623#5" to="-399818285#0"/>
    <trip id="veh33" type="veh_passenger" depart="109.53" departLane="best" from="939531004" to="23596750#7"/>
    <trip id="veh34" type="veh_passenger" depart="112.85" departLane="best" departSpeed="max" from="-27124501" to="-23596750#3"/>
    <trip id="veh35" type="veh_passenger" depart="116.17" departLane="best" from="-27124506#1" to="311525772#7"/>
    <trip id="veh36" type="veh_passenger" depart="119.49" departLane="best" from="399818277#5" to="169064081#2"/>
    <trip id="veh37" type="veh_passenger" depart="122.81" departLane="best" from="-23716752#5" to="163897623#5-AddedOffRampEdge"/>
    <trip id="veh39" type="veh_passenger" depart="129.45" departLane="best" departSpeed="max" from="863523127" to="606626812"/>
    <trip id="veh42" type="veh_passenger" depart="139.41" departLane="best" from="-606626810#1" to="312021540#4"/>
    <trip id="veh43" type="veh_passenger" depart="142.73" departLane="best" from="-27810047#1" to="23092613#10"/>
    <trip id="veh44" type="veh_passenger" depart="146.05" departLane="best" departSpeed="max" from="23092613#0" to="859295809#0"/>
    <trip id="veh46" type="veh_passenger" depart="152.68" departLane="best" from="23596746#10" to="-399818271"/>
    <trip id="veh48" type="veh_passenger" depart="159.32" departLane="best" departSpeed="max" from="-930861974#1" to="312021540#3"/>
    <trip id="veh49" type="veh_passenger" depart="162.64" departLane="best" departSpeed="max" from="31033195#0" to="-399818264#1"/>
    <trip id="veh52" type="veh_passenger" depart="172.60" departLane="best" from="-14617064#1" to="159164659#2"/>
    <trip id="veh53" type="veh_passenger" depart="175.92" departLane="best" from="-159174737#2" to="836384754"/>
    <trip id="veh54" type="veh_passenger" depart="179.24" departLane="best" departSpeed="max" from="592550490" to="506887342"/>
    <trip id="veh55" type="veh_passenger" depart="182.56" departLane="best" from="14617064#2" to="-23716752#5"/>
    <trip id="veh56" type="veh_passenger" depart="185.88" departLane="best" departSpeed="max" from="592550490" to="836384754-AddedOnRampEdge"/>
    <trip id="veh57" type="veh_passenger" depart="189.19" departLane="best" departSpeed="max" from="-27124500#5" to="23596746#10"/>
    <trip id="veh58" type="veh_passenger" depart="192.51" departLane="best" from="-27124497#3" to="399818277#13"/>
    <trip id="veh59" type="veh_passenger" depart="195.83" departLane="best" from="399818270#0" to="-399691531#0"/>
    <trip id="veh62" type="veh_passenger" depart="205.79" departLane="best" departSpeed="max" from="24334840#0" to="399818264#6"/>
    <trip id="veh63" type="veh_passenger" depart="209.11" departLane="best" from="-399818277#6" to="15172466#0"/>
    <trip id="veh64" type="veh_passenger" depart="212.43" departLane="best" departSpeed="max" from="930861974#0" to="312021667"/>
    <trip id="veh66" type="veh_passenger" depart="219.07" departLane="best" from="-311525703#1" to="-399818288#0"/>
    <trip id="veh68" type="veh_passenger" depart="225.71" departLane="best" from="-27124497#5" to="311525772#9"/>
    <trip id="veh69" type="veh_passenger" depart="229.03" departLane="best" from="-399818287#1" to="757234893#3"/>
    <trip id="veh71" type="veh_passenger" depart="235.66" departLane="best" departSpeed="max" from="-399818289#1" to="399684423#2"/>
    <trip id="veh72" type="veh_passenger" depart="238.98" departLane="best" departSpeed="max" from="-399818282" to="-399691531#0"/>
    <trip id="veh74" type="veh_passenger" depart="245.62" departLane="best" from="23092613#5" to="399818283"/>
    <trip id="veh75" type="veh_passenger" depart="248.94" departLane="best" departSpeed="max" from="-27124503#4" to="187592887"/>
    <trip id="veh76" type="veh_passenger" depart="252.26" departLane="best" from="163897702#3" to="23304900#1"/>
    <trip id="veh77" type="veh_passenger" depart="255.58" departLane="best" departSpeed="max" from="399691534#0" to="399684423#6"/>
    <trip id="veh79" type="veh_passenger" depart="262.22" departLane="best" from="163897623#6" to="159174737#3"/>
    <trip id="veh81" type="veh_passenger" depart="268.86" departLane="best" from="-399818274" to="23092613#8"/>
    <trip id="veh82" type="veh_passenger" depart="272.17" departLane="best" from="163897702#2" to="-930861974#0"/>
    <trip id="veh83" type="veh_passenger" depart="275.49" departLane="best" departSpeed="max" from="-399818297" to="761133596#6"/>
    <trip id="veh84" type="veh_passenger" depart="278.81" departLane="best" departSpeed="max" from="169064081#0" to="606626812"/>
    <trip id="veh85" type="veh_passenger" depart="282.13" departLane="best" from="24334840#2" to="-23596750#6"/>
    <trip id="veh86" type="veh_passenger" depart="285.45" departLane="best" departSpeed="max" from="863523127" to="761133597#1"/>
    <trip id="veh87" type="veh_passenger" depart="288.77" departLane="best" from="545001713#4" to="-399818267"/>
    <trip id="veh89" type="veh_passenger" depart="295.41" departLane="best" from="163897623#5-AddedOffRampEdge" to="-23716752#5"/>
    <trip id="veh90" type="veh_passenger" depart="298.73" departLane="best" from="163897622#4" to="872234618#2"/>
    <trip id="veh91" type="veh_passenger" depart="302.05" departLane="best" departSpeed="max" from="-545001713#5" to="399818283"/>
    <trip id="veh92" type="veh_passenger" depart="305.37" departLane="best" departSpeed="max" from="23092613#0" to="169064081#2"/>
    <trip id="veh93" type="veh_passenger" depart="308.69" departLane="best" from="859295809#0" to="930861974#1"/>
    <trip id="veh94" type="veh_passenger" depart="312.01" departLane="best" from="27124497#5" to="399691536#4"/>
    <trip id="veh95" type="veh_passenger" depart="315.32" departLane="best" from="-399691536#3" to="14617075#2"/>
    <trip id="veh97" type="veh_passenger" depart="321.96" departLane="best" departSpeed="max" from="24334840#0" to="399818270#3"/>
    <trip id="veh99" type="veh_passenger" depart="328.60" departLane="best" from="23596746#10-AddedOnRampEdge" to="569390549#1"/>
    <trip id="veh100" type="veh_passenger" depart="331.92" departLane="best" departSpeed="max" from="-399691536#4" to="859295810#1"/>
    <trip id="veh101" type="veh_passenger" depart="335.24" departLane="best" from="-27124500#1" to="-399818272#0"/>
    <trip id="veh102" type="veh_passenger" depart="338.56" departLane="best" from="28075379#2" to="399684423#6-AddedOnRampEdge"/>
    <trip id="veh103" type="veh_passenger" depart="341.88" departLane="best" from="-399818288#0" to="-399691527#0"/>
    <trip id="veh104" type="veh_passenger" depart="345.20" departLane="best" from="28075379#2" to="311525703#8"/>
    <trip id="veh106" type="veh_passenger" depart="351.84" departLane="best" from="23596750#5" to="836384754"/>
    <trip id="veh107" type="veh_passenger" depart="355.16" departLane="best" from="-399818277#9" to="399691536#4"/>
    <trip id="veh108" type="veh_passenger" depart="358.47" departLane="best" departSpeed="max" from="-399818289#1" to="163897702#4"/>
    <trip id="veh109" type="veh_passenger" depart="361.79" departLane="best" from="374096514#2" to="14617102#1"/>
    <trip id="veh110" type="veh_passenger" depart="365.11" departLane="best" from="14617075#2" to="399818272#3"/>
    <trip id="veh112" type="veh_passenger" depart="371.75" departLane="best" from="-27124499#0" to="-399818280#0"/>
    <trip id="veh113" type="veh_passenger" depart="375.07" departLane="best" departSpeed="max" from="-545001713#5" to="836384754"/>
    <trip id="veh115" type="veh_passenger" depart="381.71" departLane="best" from="159184236#3" to="-399818264#7"/>
    <trip id="veh116" type="veh_passenger" depart="385.03" departLane="best" departSpeed="max" from="460285037" to="399691528#4"/>
    <trip id="veh117" type="veh_passenger" depart="388.35" departLane="best" departSpeed="max" from="31033195#0" to="872234618#2"/>
    <trip id="veh118" type="veh_passenger" depart="391.67" departLane="best" from="312021540#4" to="-14617064#7"/>
    <trip id="veh119" type="veh_passenger" depart="394.99" departLane="best" from="399818287#1" to="14617102#1"/>
    <trip id="veh120" type="veh_passenger" depart="398.30" departLane="best" from="312021668" to="836384754"/>
    <trip id="veh121" type="veh_passenger" depart="401.62" departLane="best" departSpeed="max" from="399691531#0" to="-399818277#8"/>
    <trip id="veh125" type="veh_passenger" depart="414.90" departLane="best" from="163897702#3" to="-853360427#1"/>
    <trip id="veh126" type="veh_passenger" depart="418.22" departLane="best" from="311525703#7" to="-606868585"/>
    <trip id="veh128" type="veh_passenger" depart="424.86" departLane="best" departSpeed="max" from="-27124499#1" to="606875353#2"/>
    <trip id="veh129" type="veh_passenger" depart="428.18" departLane="best" from="606875353#0" to="27124500#5"/>
    <trip id="veh131" type="veh_passenger" depart="434.82" departLane="best" from="14617064#3" to="757234893#1"/>
    <trip id="veh133" type="veh_passenger" depart="441.45" departLane="best" departSpeed="max" from="-399818297" to="-311525703#3"/>
    <trip id="veh135" type="veh_passenger" depart="448.09" departLane="best" from="163897623#7" to="311525703#9"/>
    <trip id="veh136" type="veh_passenger" depart="451.41" departLane="best" from="-399691536#3" to="836384754"/>
    <trip id="veh139" type="veh_passenger" depart="461.37" departLane="best" departSpeed="max" from="-159174737#3" to="399818266"/>
    <trip id="veh141" type="veh_passenger" depart="468.01" departLane="best" from="399818279#3" to="606626814"/>
    <trip id="veh142" type="veh_passenger" depart="471.33" departLane="best" from="399818284" to="-625195082#0"/>
    <trip id="veh143" type="veh_passenger" depart="474.65" departLane="best" from="399818277#12" to="-311525703#8"/>
    <trip id="veh144" type="veh_passenger" depart="477.97" departLane="best" from="569390549#1" to="606626812"/>
    <trip id="veh145" type="veh_passenger" depart="481.28" departLane="best" departSpeed="max" from="-399818283" to="399818297"/>
    <trip id="veh146" type="veh_passenger" depart="484.60" departLane="best" from="23092613#10" to="14617102#4"/>
    <trip id="veh147" type="veh_passenger" depart="487.92" departLane="best" departSpeed="max" from="-159174737#3" to="-399818277#0"/>
    <trip id="veh148" type="veh_passenger" depart="491.24" departLane="best" from="14617102#5" to="606626814"/>
    <trip id="veh149" type="veh_passenger" depart="494.56" departLane="best" departSpeed="max" from="863523127" to="-930861974#0"/>
    <trip id="veh150" type="veh_passenger" depart="497.88" departLane="best" from="311525772#3" to="163897702#6"/>
    <trip id="veh152" type="veh_passenger" depart="504.52" departLane="best" from="761133596#6" to="-311525772#7"/>
    <trip id="veh153" type="veh_passenger" depart="507.84" departLane="best" departSpeed="max" from="863523127" to="-399818271"/>
    <trip id="veh154" type="veh_passenger" depart="511.16" departLane="best" from="859295809#2" to="-625195080"/>
    <trip id="veh155" type="veh_passenger" depart="514.48" departLane="best" from="-27124506#0" to="23092613#10"/>
    <trip id="veh156" type="veh_passenger" depart="517.80" departLane="best" departSpeed="max" from="399691534#0" to="15172466#1-AddedOnRampEdge"/>
    <trip id="veh159" type="veh_passenger" depart="527.75" departLane="best" from="-460525324#3" to="399691534#1"/>
    <trip id="veh160" type="veh_passenger" depart="531.07" departLane="best" from="-14617064#10" to="761133597#1"/>
    <trip id="veh161" type="veh_passenger" depart="534.39" departLane="best" departSpeed="max" from="24334840#0" to="399691538#1"/>
    <trip id="veh164" type="veh_passenger" depart="544.35" departLane="best" from="14617064#8" to="569390546"/>
    <trip id="veh165" type="veh_passenger" depart="547.67" departLane="best" from="399691531#1" to="14617102#1"/>
    <trip id="veh166" type="veh_passenger" depart="550.99" departLane="best" from="14617064#4" to="163897702#9"/>
    <trip id="veh167" type="veh_passenger" depart="554.31" departLane="best" from="-311525703#8" to="169064081#2"/>
    <trip id="veh169" type="veh_passenger" depart="560.95" departLane="best" from="606868585" to="311525703#4"/>
    <trip id="veh171" type="veh_passenger" depart="567.58" departLane="best" from="-14617064#1" to="14617064#10"/>
    <trip id="veh174" type="veh_passenger" depart="577.54" departLane="best" departSpeed="max" from="169064081#0" to="-399818280#0"/>
    <trip id="veh175" type="veh_passenger" depart="580.86" departLane="best" from="23092613#7" to="757234893#2"/>
    <trip id="veh176" type="veh_passenger" depart="584.18" departLane="best" departSpeed="max" from="-27124500#5" to="23716752#4"/>
    <trip id="veh177" type="veh_passenger" depart="587.50" departLane="best" from="311525703#3" to="159174737#3"/>
    <trip id="veh178" type="veh_passenger" depart="590.82" departLane="best" from="399818288#0" to="399818272#2"/>
    <trip id="veh179" type="veh_passenger" depart="594.14" departLane="best" from="399684423#0" to="-399818287#1"/>
    <trip id="veh180" type="veh_passenger" depart="597.46" departLane="best" from="-399818277#3" to="-159184236#0"/>
    <trip id="veh181" type="veh_passenger" depart="600.78" departLane="best" from="-399818293#0" to="23304900#1"/>
    <trip id="veh183" type="veh_passenger" depart="607.41" departLane="best" departSpeed="max" from="163897702#0" to="311525772#9"/>
    <trip id="veh186" type="veh_passenger" depart="617.37" departLane="best" from="312021540#5" to="-14617064#5"/>
    <trip id="veh187" type="veh_passenger" depart="620.69" departLane="best" departSpeed="max" from="-27124505" to="181954214#1"/>
    <trip id="veh188" type="veh_passenger" depart="624.01" departLane="best" departSpeed="max" from="-399818266" to="859295809#2"/>
    <trip id="veh189" type="veh_passenger" depart="627.33" departLane="best" departSpeed="max" from="-399818297" to="569390546"/>
    <trip id="veh190" type="veh_passenger" depart="630.65" departLane="best" departSpeed="max" from="23092613#0" to="399818288#1"/>
    <trip id="veh191" type="veh_passenger" depart="633.97" departLane="best" from="312021795" to="872234618#2"/>
    <trip id="veh193" type="veh_passenger" depart="640.61" departLane="best" from="606626818" to="311525703#1"/>
    <trip id="veh194" type="veh_passenger" depart="643.93" departLane="best" departSpeed="max" from="399691531#0" to="23596750#2"/>
    <trip id="veh197" type="veh_passenger" depart="653.88" departLane="best" from="23092613#7" to="-606868560"/>
    <trip id="veh198" type="veh_passenger" depart="657.20" departLane="best" from="-399818293#2" to="312021540#2"/>
    <trip id="veh200" type="veh_passenger" depart="663.84" departLane="best" departSpeed="max" from="311525529#0" to="-692721826"/>
    <trip id="veh201" type="veh_passenger" depart="667.16" departLane="best" departSpeed="max" from="-27124499#1" to="14617064#1"/>
    <trip id="veh202" type="veh_passenger" depart="670.48" departLane="best" departSpeed="max" from="-606626812" to="15882103#2"/>
    <trip id="veh203" type="veh_passenger" depart="673.80" departLane="best" departSpeed="max" from="24334840#0" to="-399691533#0"/>
    <trip id="veh207" type="veh_passenger" depart="687.08" departLane="best" departSpeed="max" from="163897702#0" to="-399818278#2"/>
    <trip id="veh208" type="veh_passenger" depart="690.40" departLane="best" departSpeed="max" from="163897702#0" to="757234893#3"/>
    <trip id="veh209" type="veh_passenger" depart="693.71" departLane="best" departSpeed="max" from="28075379#0" to="399684429"/>
    <trip id="veh211" type="veh_passenger" depart="700.35" departLane="best" from="163897623#0" to="-14617064#5"/>
    <trip id="veh212" type="veh_passenger" depart="703.67" departLane="best" from="159167310#4" to="399818273"/>
    <trip id="veh214" type="veh_passenger" depart="710.31" departLane="best" departSpeed="max" from="163897702#0" to="399818270#3"/>
    <trip id="veh215" type="veh_passenger" depart="713.63" departLane="best" departSpeed="max" from="24334840#0" to="301423736#4"/>
    <trip id="veh218" type="veh_passenger" depart="723.59" departLane="best" from="23092613#3-AddedOnRampEdge" to="-399691528#3"/>
    <trip id="veh219" type="veh_passenger" depart="726.91" departLane="best" from="31033195#5" to="-159184236#11"/>
    <trip id="veh221" type="veh_passenger" depart="733.54" departLane="best" from="-159175556#2" to="312021540#5"/>
    <trip id="veh223" type="veh_passenger" depart="740.18" departLane="best" from="-399818280#1" to="159164659#4"/>
    <trip id="veh224" type="veh_passenger" depart="743.50" departLane="best" from="399818265#1" to="506887342"/>
    <trip id="veh228" type="veh_passenger" depart="756.78" departLane="best" from="312021540#2" to="399818282"/>
    <trip id="veh229" type="veh_passenger" depart="760.10" departLane="best" from="312021540#3" to="399818274"/>
    <trip id="veh230" type="veh_passenger" depart="763.42" departLane="best" departSpeed="max" from="841511528" to="-399818277#3"/>
    <trip id="veh231" type="veh_passenger" depart="766.74" departLane="best" departSpeed="max" from="-159174737#3" to="-399818264#1"/>
    <trip id="veh232" type="veh_passenger" depart="770.06" departLane="best" from="-311525703#6" to="399684423#3"/>
    <trip id="veh233" type="veh_passenger" depart="773.38" departLane="best" from="27124503#1" to="-399818284"/>
    <trip id="veh236" type="veh_passenger" depart="783.33" departLane="best" from="399818264#6" to="-311525772#6"/>
    <trip id="veh237" type="veh_passenger" depart="786.65" departLane="best" from="399818288#1" to="859295810#1"/>
    <trip id="veh238" type="veh_passenger" depart="789.97" departLane="best" departSpeed="max" from="-27124505" to="-159184236#1"/>
    <trip id="veh239" type="veh_passenger" depart="793.29" departLane="best" from="14617064#6" to="399684423#6-AddedOnRampEdge"/>
    <trip id="veh240" type="veh_passenger" depart="796.61" departLane="best" from="859295809#0" to="163897702#4"/>
    <trip id="veh242" type="veh_passenger" depart="803.25" departLane="best" from="399684423#6-AddedOnRampEdge" to="311525772#7"/>
    <trip id="veh243" type="veh_passenger" depart="806.57" departLane="best" from="-27124504#0" to="399818279#0"/>
    <trip id="veh244" type="veh_passenger" depart="809.89" departLane="best" from="-311525703#1" to="872234618#2"/>
    <trip id="veh245" type="veh_passenger" depart="813.21" departLane="best" from="399818275#0" to="159184236#12"/>
    <trip id="veh246" type="veh_passenger" depart="816.52" departLane="best" from="163897702#5" to="163897623#2"/>
    <trip id="veh247" type="veh_passenger" depart="819.84" departLane="best" from="23596746#2" to="159175556#1"/>
    <trip id="veh248" type="veh_passenger" depart="823.16" departLane="best" from="563866336" to="460525324#2"/>
    <trip id="veh249" type="veh_passenger" depart="826.48" departLane="best" from="311525703#6" to="506887342"/>
    <trip id="veh251" type="veh_passenger" depart="833.12" departLane="best" from="399691536#0" to="859295810#1"/>
    <trip id="veh252" type="veh_passenger" depart="836.44" departLane="best" departSpeed="max" from="-606626812" to="399818290#0"/>
    <trip id="veh253" type="veh_passenger" depart="839.76" departLane="best" departSpeed="max" from="24334840#0" to="23304900#1-AddedOnRampEdge"/>
    <trip id="veh255" type="veh_passenger" depart="846.40" departLane="best" departSpeed="max" from="-606626812" to="569390549#0"/>
    <trip id="veh257" type="veh_passenger" depart="853.04" departLane="best" departSpeed="max" from="606626810#0" to="-545001713#3"/>
    <trip id="veh258" type="veh_passenger" depart="856.36" departLane="best" from="23092613#3" to="311525529#1"/>
    <trip id="veh259" type="veh_passenger" depart="859.67" departLane="best" from="163897622#4" to="-159184236#12"/>
    <trip id="veh261" type="veh_passenger" depart="866.31" departLane="best" departSpeed="max" from="399691527#0" to="-853360427#0"/>
    <trip id="veh263" type="veh_passenger" depart="872.95" departLane="best" departSpeed="max" from="-27124500#5" to="399818252#0"/>
    <trip id="veh266" type="veh_passenger" depart="882.91" departLane="best" from="-27124503#0" to="-399818286#0"/>
    <trip id="veh267" type="veh_passenger" depart="886.23" departLane="best" from="399684423#7" to="14617102#4"/>
    <trip id="veh268" type="veh_passenger" depart="889.55" departLane="best" departSpeed="max" from="28075379#0" to="23304900#1"/>
    <trip id="veh269" type="veh_passenger" depart="892.87" departLane="best" from="23716752#5" to="181954214#2"/>
    <trip id="veh270" type="veh_passenger" depart="896.19" departLane="best" from="399818264#4" to="159167310#3"/>
    <trip id="veh271" type="veh_passenger" depart="899.51" departLane="best" departSpeed="max" from="399691527#0" to="-625195082#0"/>
    <trip id="veh272" type="veh_passenger" depart="902.82" departLane="best" departSpeed="max" from="-399818297" to="-399691527#0"/>
    <trip id="veh273" type="veh_passenger" depart="906.14" departLane="best" from="-399818275#1" to="-399691527#0"/>
    <trip id="veh276" type="veh_passenger" depart="916.10" departLane="best" departSpeed="max" from="863523127" to="24334840#2"/>
    <trip id="veh277" type="veh_passenger" depart="919.42" departLane="best" from="-606875353#0" to="-311525703#1"/>
    <trip id="veh278" type="veh_passenger" depart="922.74" departLane="best" from="-399818270#0" to="-159167310#2"/>
    <trip id="veh282" type="veh_passenger" depart="936.02" departLane="best" from="569390546" to="23596746#2"/>
    <trip id="veh285" type="veh_passenger" depart="945.97" departLane="best" from="399818290#1" to="163897702#6"/>
    <trip id="veh286" type="veh_passenger" depart="949.29" departLane="best" departSpeed="max" from="-27124499#1" to="311525772#9"/>
    <trip id="veh287" type="veh_passenger" depart="952.61" departLane="best" from="-23596750#4" to="-399691536#3"/>
    <trip id="veh288" type="veh_passenger" depart="955.93" departLane="best" from="27124503#0" to="14617102#3"/>
    <trip id="veh289" type="veh_passenger" depart="959.25" departLane="best" departSpeed="max" from="930861974#0" to="-374096514#2"/>
    <trip id="veh290" type="veh_passenger" depart="962.57" departLane="best" from="23596750#5" to="23092613#8-AddedOnRampEdge"/>
    <trip id="veh291" type="veh_passenger" depart="965.89" departLane="best" departSpeed="max" from="169064081#0" to="606626812"/>
    <trip id="veh293" type="veh_passenger" depart="972.53" departLane="best" from="31033195#5" to="311525529#1"/>
    <trip id="veh295" type="veh_passenger" depart="979.17" departLane="best" from="312021540#9" to="-399818264#6"/>
    <trip id="veh297" type="veh_passenger" depart="985.80" departLane="best" from="-14617064#2" to="23092613#8-AddedOnRampEdge"/>
    <trip id="veh298" type="veh_passenger" depart="989.12" departLane="best" from="28075379#1" to="14617064#6"/>
    <trip id="veh299" type="veh_passenger" depart="992.44" departLane="best" departSpeed="max" from="-399818287#2" to="399691531#1"/>
    <trip id="veh300" type="veh_passenger" depart="995.76" departLane="best" departSpeed="max" from="399691527#0" to="23092613#9"/>
    <trip id="veh301" type="veh_passenger" depart="999.08" departLane="best" from="399684423#6" to="761133596#6"/>
    <trip id="veh302" type="veh_passenger" depart="1002.40" departLane="best" from="399818277#12" to="311525772#4"/>
    <trip id="veh303" type="veh_passenger" depart="1005.72" departLane="best" from="312021540#9" to="836384754"/>
    <trip id="veh305" type="veh_passenger" depart="1012.36" departLane="best" from="312021540#1" to="757234893#3"/>
    <trip id="veh307" type="veh_passenger" depart="1019.00" departLane="best" from="-399818264#5" to="14617102#5"/>
    <trip id="veh309" type="veh_passenger" depart="1025.63" departLane="best" departSpeed="max" from="-606875353#2" to="-399691528#0"/>
    <trip id="veh310" type="veh_passenger" depart="1028.95" departLane="best" from="399684423#6-AddedOnRampEdge" to="399691528#1"/>
    <trip id="veh314" type="veh_passenger" depart="1042.23" departLane="best" from="14617102#2" to="-606626810#0"/>
    <trip id="veh316" type="veh_passenger" depart="1048.87" departLane="best" departSpeed="max" from="841511528" to="939531005"/>
    <trip id="veh317" type="veh_passenger" depart="1052.19" departLane="best" from="399684423#0" to="-625195082#0"/>
    <trip id="veh318" type="veh_passenger" depart="1055.51" departLane="best" from="-159184236#8" to="399818275#1"/>
    <trip id="veh319" type="veh_passenger" depart="1058.83" departLane="best" departSpeed="max" from="625195082#0" to="-399818272#0"/>
    <trip id="veh320" type="veh_passenger" depart="1062.15" departLane="best" departSpeed="max" from="28075379#0" to="312021540#1"/>
    <trip id="veh322" type="veh_passenger" depart="1068.78" departLane="best" from="374096514#1" to="606626812"/>
    <trip id="veh323" type="veh_passenger" depart="1072.10" departLane="best" from="14617102#6" to="399684424#0"/>
    <trip id="veh324" type="veh_passenger" depart="1075.42" departLane="best" departSpeed="max" from="-606875353#2" to="836384754-AddedOnRampEdge"/>
    <trip id="veh326" type="veh_passenger" depart="1082.06" departLane="best" departSpeed="max" from="23092613#0" to="15172466#1-AddedOnRampEdge"/>
    <trip id="veh328" type="veh_passenger" depart="1088.70" departLane="best" from="163897623#6" to="23716752#3"/>
    <trip id="veh330" type="veh_passenger" depart="1095.34" departLane="best" departSpeed="max" from="24334840#0" to="163897702#9"/>
    <trip id="veh331" type="veh_passenger" depart="1098.66" departLane="best" from="-399818272#2" to="163897623#0"/>
    <trip id="veh332" type="veh_passenger" depart="1101.98" departLane="best" departSpeed="max" from="399818267" to="311525772#5"/>