<?xml version="1.0" encoding="UTF-8"?>

<!-- generated on Fri Mar  4 14:31:05 2022 by Eclipse SUMO polyconvert Version 1.8.0
<configuration xmlns:xsi="http://www.w3.org/2001/XMLSchema-instance" xsi:noNamespaceSchemaLocation="http://sumo.dlr.de/xsd/polyconvertConfiguration.xsd">

    <input>
        <net-file value="osm.net.xml"/>
        <osm-files value="osm_bbox.osm.xml"/>
        <osm.keep-full-type value="true"/>
        <type-file value="/home/veins/src/sumo/data/typemap/osmPolyconvert.typ.xml"/>
    </input>

    <output>
        <output-file value="osm.poly.xml"/>
    </output>

    <processing>
        <poi-layer-offset value="5"/>
    </processing>

    <report>
        <verbose value="true"/>
    </report>

</configuration>
-->

<additional xmlns:xsi="http://www.w3.org/2001/XMLSchema-instance" xsi:noNamespaceSchemaLocation="http://sumo.dlr.de/xsd/additional_file.xsd">
    <location netOffset="-774803.50,-338341.47" convBoundary="-3601.71,-9319.56,16344.03,9647.09" origBoundary="101.439834,2.973977,101.619476,3.145025" projParameter="+proj=utm +zone=47 +ellps=WGS84 +datum=WGS84 +units=m +no_defs"/>

    <poly id="23596846" type="building.commercial" color="255,230,230" fill="1" layer="-1.00" shape="1810.668622,876.226285 1873.465021,876.117816 1871.878777,792.969435 1808.828325,792.302883 1810.668622,876.226285"/>
    <poly id="23716812" type="amenity.clinic" color="237,199,199" fill="1" layer="-1.00" shape="2076.774460,1551.640332 2089.677656,1598.713906 2099.326682,1596.103211 2102.513884,1607.727687 2074.123279,1615.406172 2058.032875,1556.708134 2076.774460,1551.640332"/>
    <poly id="23716812#1" type="building.yes" color="255,230,230" fill="1" layer="-1.00" shape="2076.774460,1551.640332 2089.677656,1598.713906 2099.326682,1596.103211 2102.513884,1607.727687 2074.123279,1615.406172 2058.032875,1556.708134 2076.774460,1551.640332"/>
    <poly id="23716815" type="amenity.clinic" color="237,199,199" fill="1" layer="-1.00" shape="2003.538795,1602.429661 2028.413246,1595.406793 2024.220990,1580.748489 1999.346538,1587.771360 2003.538795,1602.429661"/>
    <poly id="24984949" type="waterway.stream" color="181,209,209" fill="0" layer="-4.00" shape="2075.795958,1928.174013 2018.441379,1822.291926 1800.576228,1647.606019 1780.674962,1625.332426 1766.210978,1603.680018 1757.205219,1578.433522 1751.844840,1544.787013 1764.643496,982.055408 1758.622365,969.428651 1745.943208,959.784712 1730.669153,956.396868"/>
    <poly id="24984950" type="natural.water" color="181,209,209" fill="1" layer="-4.00" shape="1574.604653,969.720118 1572.489140,980.281140 1703.817517,991.008460 1706.168486,979.640319 1711.400580,977.638866 1711.588515,963.776338 1730.318308,963.786684 1730.669153,956.396868 1731.125009,946.894105 1720.027613,945.784055 1724.974711,865.416900 1714.041110,851.251931 1704.622468,845.653880 1690.212585,843.706358 1594.507262,843.096795 1580.588224,845.310420 1573.445507,851.069139 1567.304556,856.498270 1563.722883,861.424410 1562.753735,866.865553 1579.249474,899.741252 1585.964115,939.409544 1574.604653,969.720118"/>
    <poly id="25593855" type="amenity.parking" color="184,184,179" fill="1" layer="-1.00" shape="2045.096199,1543.069443 2097.937588,1528.820700 2090.108325,1499.870480 2043.699107,1512.596354 2038.942278,1520.650810 2045.096199,1543.069443"/>
    <poly id="302533825" type="building.apartments" color="255,230,230" fill="1" layer="-1.00" shape="1512.322022,1318.339744 1565.817193,1319.404568 1566.219466,1299.468519 1512.724286,1298.403702 1512.322022,1318.339744"/>
    <poly id="302533826" type="building.residential" color="255,230,230" fill="1" layer="-1.00" shape="1655.504402,1320.277015 1656.203950,1301.647176 1709.975071,1303.642063 1709.275513,1322.271908 1655.504402,1320.277015"/>
    <poly id="302533827" type="building.apartments" color="255,230,230" fill="1" layer="-1.00" shape="1581.049029,1317.005955 1600.000265,1317.415139 1601.582754,1244.331280 1582.631506,1243.922105 1581.049029,1317.005955"/>
    <poly id="302533828" type="building.apartments" color="255,230,230" fill="1" layer="-1.00" shape="1622.323204,1317.101957 1641.107562,1317.532888 1642.778076,1244.869638 1624.004828,1244.438743 1622.323204,1317.101957"/>
    <poly id="302533829" type="building.apartments" color="255,230,230" fill="1" layer="-1.00" shape="1510.820190,1285.001007 1529.882155,1285.620646 1532.312258,1211.509857 1513.250280,1210.890228 1510.820190,1285.001007"/>
    <poly id="302533830" type="building.apartments" color="255,230,230" fill="1" layer="-1.00" shape="1545.123389,1231.343854 1545.649791,1210.633631 1600.768081,1212.034119 1600.230548,1232.744324 1545.123389,1231.343854"/>
    <poly id="302533831" type="building.apartments" color="255,230,230" fill="1" layer="-1.00" shape="1628.366566,1234.082093 1682.842469,1234.330498 1682.929960,1215.843062 1628.454023,1215.605728 1628.366566,1234.082093"/>
    <poly id="302533832" type="building.apartments" color="255,230,230" fill="1" layer="-1.00" shape="1694.792823,1289.500369 1714.400387,1289.866840 1715.682151,1221.772008 1696.074575,1221.405546 1694.792823,1289.500369"/>
    <poly id="312016450" type="leisure.track" color="207,245,201" fill="1" layer="-2.00" shape="2865.934864,787.384783 2862.930726,897.496839 2852.517441,912.995198 2839.368297,923.630117 2825.034529,927.159245 2809.530118,927.123065 2793.667246,923.412836 2782.108092,915.198580 2773.660457,903.384753 2771.697555,891.386906 2774.067711,781.240247 2783.285374,768.106766 2793.211614,761.137530 2806.357994,751.686426 2816.738110,750.405095 2835.000582,750.569392 2844.174023,756.399339 2856.441750,766.020361 2865.934864,787.384783"/>
    <poly id="312016450#1" type="sport.running" color="79,230,125" fill="1" layer="-2.00" shape="2865.934864,787.384783 2862.930726,897.496839 2852.517441,912.995198 2839.368297,923.630117 2825.034529,927.159245 2809.530118,927.123065 2793.667246,923.412836 2782.108092,915.198580 2773.660457,903.384753 2771.697555,891.386906 2774.067711,781.240247 2783.285374,768.106766 2793.211614,761.137530 2806.357994,751.686426 2816.738110,750.405095 2835.000582,750.569392 2844.174023,756.399339 2856.441750,766.020361 2865.934864,787.384783"/>
    <poly id="312016521" type="building.yes" color="255,230,230" fill="1" layer="-1.00" shape="2873.701126,910.079509 2891.249536,911.193665 2894.116060,769.504871 2876.059745,771.553824 2874.794263,760.962713 2857.043104,751.395280 2847.523039,746.350061 2837.394578,744.644723 2805.579977,746.683728 2794.636525,751.061639 2783.575375,758.216316 2772.355164,771.577469 2766.095763,780.059946 2765.303974,804.808042 2753.286109,807.280456 2754.286963,864.571656 2768.069414,863.751885 2768.536589,897.110632 2770.726812,911.786473 2780.703949,921.136618 2790.689036,927.079103 2805.004470,931.405299 2844.259498,929.516465 2855.164627,922.494207 2873.701126,910.079509"/>
    <poly id="312016521#1" type="leisure.stadium" color="207,245,201" fill="1" layer="-2.00" shape="2873.701126,910.079509 2891.249536,911.193665 2894.116060,769.504871 2876.059745,771.553824 2874.794263,760.962713 2857.043104,751.395280 2847.523039,746.350061 2837.394578,744.644723 2805.579977,746.683728 2794.636525,751.061639 2783.575375,758.216316 2772.355164,771.577469 2766.095763,780.059946 2765.303974,804.808042 2753.286109,807.280456 2754.286963,864.571656 2768.069414,863.751885 2768.536589,897.110632 2770.726812,911.786473 2780.703949,921.136618 2790.689036,927.079103 2805.004470,931.405299 2844.259498,929.516465 2855.164627,922.494207 2873.701126,910.079509"/>
    <poly id="312020351" type="building.yes" color="255,230,230" fill="1" layer="-1.00" shape="2823.270616,1539.509054 2779.205203,1415.368646 2776.959941,1414.754885 2772.043367,1400.703307 2792.125366,1393.237838 2797.096155,1407.886996 2793.243091,1409.924815 2803.167639,1436.988185 2825.308747,1428.885830 2815.486576,1400.849070 2809.810246,1402.550712 2805.578286,1390.624999 2829.200024,1381.939710 2833.218515,1394.783231 2828.165286,1396.375689 2845.666212,1446.325869 2864.778857,1439.599431 2875.259884,1471.255646 2856.570091,1477.894556 2873.285276,1526.139082 2859.749902,1530.721086 2849.822103,1500.305322 2825.911924,1508.680125 2835.348150,1535.277685 2823.270616,1539.509054"/>
    <poly id="312020485" type="building.yes" color="255,230,230" fill="1" layer="-1.00" shape="2579.071009,1339.323785 2586.239528,1327.314074 2628.968017,1352.506726 2596.229683,1407.285046 2591.020534,1404.208187 2586.141024,1412.384070 2560.483964,1397.255155 2562.549652,1393.796981 2556.896236,1390.453554 2559.107081,1386.752314 2547.411435,1379.865403 2550.828176,1374.153351 2573.752956,1387.660552 2592.880064,1355.664191 2579.040775,1347.510991 2582.669665,1341.445388 2579.071009,1339.323785"/>
    <poly id="312020525" type="amenity.place_of_worship" color="237,199,199" fill="1" layer="-1.00" shape="2807.035075,1362.160979 2805.319327,1358.649713 2812.234101,1355.291377 2808.946445,1348.590035 2801.875805,1352.014389 2800.436742,1349.090157 2783.634209,1357.238190 2785.715310,1361.469462 2777.742740,1365.334266 2780.089481,1370.119354 2788.251360,1366.155418 2790.277082,1370.286986 2807.035075,1362.160979"/>
    <poly id="312020525#1" type="building.yes" color="255,230,230" fill="1" layer="-1.00" shape="2807.035075,1362.160979 2805.319327,1358.649713 2812.234101,1355.291377 2808.946445,1348.590035 2801.875805,1352.014389 2800.436742,1349.090157 2783.634209,1357.238190 2785.715310,1361.469462 2777.742740,1365.334266 2780.089481,1370.119354 2788.251360,1366.155418 2790.277082,1370.286986 2807.035075,1362.160979"/>
    <poly id="312020601" type="building.yes" color="255,230,230" fill="1" layer="-1.00" shape="2695.522224,1205.423825 2716.116328,1216.812396 2704.511869,1237.552236 2715.486507,1243.618746 2727.403734,1222.304313 2746.253870,1232.737327 2720.677057,1278.482140 2703.226522,1268.826867 2700.155051,1274.329516 2644.193348,1243.374863 2652.368969,1228.756419 2674.518159,1241.011595 2678.404907,1234.072544 2673.839543,1231.550383 2678.061377,1224.003599 2683.459823,1226.992388 2695.522224,1205.423825"/>
    <poly id="312020673" type="amenity.place_of_worship" color="237,199,199" fill="1" layer="-1.00" shape="2665.673898,1208.540552 2664.433273,1206.369134 2662.963205,1207.195494 2659.750883,1201.567539 2662.045105,1200.267355 2660.106646,1196.866215 2676.210640,1187.787156 2682.579725,1199.020810 2665.673898,1208.540552"/>
    <poly id="312020673#1" type="building.mosque" color="255,230,230" fill="1" layer="-1.00" shape="2665.673898,1208.540552 2664.433273,1206.369134 2662.963205,1207.195494 2659.750883,1201.567539 2662.045105,1200.267355 2660.106646,1196.866215 2676.210640,1187.787156 2682.579725,1199.020810 2665.673898,1208.540552"/>
    <poly id="312020717" type="building.yes" color="255,230,230" fill="1" layer="-1.00" shape="2529.237555,1241.712537 2538.844902,1223.623378 2549.120362,1229.035464 2539.524161,1247.113586 2529.237555,1241.712537"/>
    <poly id="312020718" type="building.yes" color="255,230,230" fill="1" layer="-1.00" shape="2552.864104,1254.778794 2561.999521,1238.746415 2576.117348,1246.701102 2566.981928,1262.733481 2552.864104,1254.778794"/>
    <poly id="312020725" type="building.yes" color="255,230,230" fill="1" layer="-1.00" shape="2568.461184,1181.705038 2575.318509,1169.595019 2556.357608,1158.962645 2549.500286,1171.072664 2568.461184,1181.705038"/>
    <poly id="312020726" type="building.yes" color="255,230,230" fill="1" layer="-1.00" shape="2593.205239,1192.516871 2607.856373,1200.716209 2615.227494,1187.678022 2600.576358,1179.478684 2593.205239,1192.516871"/>
    <poly id="312020951" type="building.yes" color="255,230,230" fill="1" layer="-1.00" shape="2642.934506,1172.762174 2648.027820,1163.524648 2628.333107,1152.779906 2623.463170,1161.619654 2631.416602,1165.953131 2628.300287,1171.610570 2603.829068,1158.265737 2605.928950,1154.453596 2613.849068,1158.764865 2620.740721,1146.245559 2597.424733,1133.534070 2590.019295,1146.981543 2599.083555,1151.915057 2597.285264,1155.174708 2565.782590,1137.996444 2567.904817,1134.140099 2578.779701,1140.062520 2585.325088,1128.173048 2564.997178,1117.094933 2558.920940,1128.122516 2564.530531,1131.189234 2561.481238,1136.725127 2553.083483,1132.147217 2526.969129,1179.517164 2555.305958,1194.973134 2585.942188,1211.673638 2618.988859,1229.696386 2625.791124,1217.353897 2635.843740,1199.110877 2636.910130,1199.688688 2640.573732,1193.047840 2646.940426,1181.478805 2633.410720,1174.100807 2636.180775,1169.073201 2642.934506,1172.762174"/>
    <poly id="312021402" type="building.yes" color="255,230,230" fill="1" layer="-1.00" shape="2509.056528,1186.755412 2548.101602,1208.044900 2555.305958,1194.973134 2585.942188,1211.673638 2582.535459,1217.861465 2579.206947,1223.894580 2622.428663,1247.461956 2619.044304,1253.594515 2622.221225,1255.327897 2626.018861,1248.443958 2636.049503,1253.910805 2624.053358,1275.689730 2614.689199,1270.589547 2620.285153,1260.434895 2617.163792,1258.723771 2613.008696,1266.270708 2590.981291,1254.259234 2581.330838,1271.750843 2607.246073,1285.884595 2610.071972,1280.757547 2623.435033,1288.046651 2612.377157,1308.112861 2599.291793,1300.979299 2601.905465,1296.238992 2595.951510,1292.994439 2594.019235,1296.475054 2481.416233,1235.073280 2488.151434,1222.863405 2512.955880,1236.386014 2525.264732,1214.043563 2501.237851,1200.943196 2509.056528,1186.755412"/>
    <poly id="312021470" type="building.yes" color="255,230,230" fill="1" layer="-1.00" shape="2474.065839,1277.375466 2461.224532,1289.582156 2491.781224,1321.285080 2494.846641,1318.371369 2498.763323,1322.429889 2508.539244,1313.125850 2474.065839,1277.375466"/>
    <poly id="312021471" type="building.yes" color="255,230,230" fill="1" layer="-1.00" shape="2498.922414,1297.149294 2509.918070,1303.735833 2518.057539,1290.301147 2507.061856,1283.725672 2498.922414,1297.149294"/>
    <poly id="312021478" type="building.yes" color="255,230,230" fill="1" layer="-1.00" shape="2444.862597,1256.684273 2440.981005,1261.421622 2444.552000,1265.866566 2440.961649,1269.719483 2459.123962,1288.924486 2468.085326,1280.747060 2444.862597,1256.684273"/>
    <poly id="312021501" type="building.yes" color="255,230,230" fill="1" layer="-1.00" shape="2534.928030,1300.674181 2550.979067,1309.507429 2548.823472,1313.363693 2553.844272,1316.130318 2556.692360,1311.025451 2572.565673,1319.758714 2563.116712,1336.697595 2569.303868,1340.097586 2556.962096,1362.240802 2523.360458,1343.752071 2529.570421,1332.614171 2510.742407,1322.247629 2516.069971,1312.711932 2525.367339,1317.834079 2534.928030,1300.674181"/>
    <poly id="312021874" type="building.yes" color="255,230,230" fill="1" layer="-1.00" shape="2192.465090,975.239798 2201.239805,975.558955 2201.679383,963.511438 2218.339119,964.114490 2219.063639,944.333999 2226.459308,944.605689 2227.480147,916.981612 2218.249467,916.639267 2218.950062,897.577871 2183.061550,896.277294 2182.360704,915.449323 2206.093597,916.312240 2205.060920,944.246074 2177.491159,943.252518 2176.766208,963.221088 2192.881005,963.800739 2192.465090,975.239798"/>
    <poly id="312025812" type="building.yes" color="255,230,230" fill="1" layer="-1.00" shape="2762.421412,1310.753446 2773.785820,1321.368144 2789.663073,1304.610228 2778.298663,1293.995529 2762.421412,1310.753446"/>
    <poly id="312025813" type="building.yes" color="255,230,230" fill="1" layer="-1.00" shape="2753.456852,1263.135613 2764.968181,1272.754897 2777.593381,1257.859181 2766.070926,1248.239870 2753.456852,1263.135613"/>
    <poly id="312025814" type="building.yes" color="255,230,230" fill="1" layer="-1.00" shape="2773.008325,1273.293678 2781.262773,1277.318089 2786.347436,1267.029473 2778.092987,1263.005062 2773.008325,1273.293678"/>
    <poly id="312025816" type="building.yes" color="255,230,230" fill="1" layer="-1.00" shape="2745.834713,1278.872806 2759.071108,1283.251830 2752.608582,1302.510050 2739.372190,1298.131024 2745.834713,1278.872806"/>
    <poly id="312025885" type="building.yes" color="255,230,230" fill="1" layer="-1.00" shape="2739.460409,1193.665904 2730.206726,1193.644300 2715.924954,1179.681513 2727.309956,1162.426283 2740.736539,1161.572515 2755.013949,1177.405094 2739.460409,1193.665904"/>
    <poly id="312026250" type="leisure.pitch" color="207,245,201" fill="1" layer="-2.00" shape="2815.837273,1041.151308 2820.310334,1073.689627 2786.365456,1078.301481 2784.199979,1062.563559 2781.892414,1045.752107 2815.837273,1041.151308"/>
    <poly id="312026250#1" type="sport.basketball" color="79,230,125" fill="1" layer="-2.00" shape="2815.837273,1041.151308 2820.310334,1073.689627 2786.365456,1078.301481 2784.199979,1062.563559 2781.892414,1045.752107 2815.837273,1041.151308"/>
    <poly id="312026337" type="building.yes" color="255,230,230" fill="1" layer="-1.00" shape="2575.590393,785.889052 2582.381398,792.687041 2580.207714,794.761985 2596.841452,811.319135 2599.594396,808.858305 2607.976214,815.516175 2602.008968,817.958448 2599.836967,824.082779 2593.833603,832.477339 2585.218477,825.708287 2587.595044,822.483172 2570.227602,805.769419 2567.161835,804.058436 2561.671359,797.595396 2575.590393,785.889052"/>
    <poly id="312026874" type="building.yes" color="255,230,230" fill="1" layer="-1.00" shape="2689.234410,835.178066 2693.497664,838.485047 2697.672094,841.725439 2692.317524,848.528311 2701.743307,855.841398 2695.384742,863.925340 2681.151724,852.872511 2669.028112,843.462061 2675.219324,835.599006 2683.712517,842.190762 2689.234410,835.178066"/>
    <poly id="312026915" type="leisure.pitch" color="207,245,201" fill="1" layer="-2.00" shape="2737.430035,1091.463939 2676.491417,1105.605213 2653.678568,1005.943767 2715.972398,992.546885 2737.430035,1091.463939"/>
    <poly id="312026915#1" type="sport.hockey" color="79,230,125" fill="1" layer="-2.00" shape="2737.430035,1091.463939 2676.491417,1105.605213 2653.678568,1005.943767 2715.972398,992.546885 2737.430035,1091.463939"/>
    <poly id="312027794" type="building.yes" color="255,230,230" fill="1" layer="-1.00" shape="2296.052213,920.338757 2323.554914,940.583307 2328.185088,934.387264 2292.943477,908.426799 2303.096432,894.819765 2335.173632,918.449448 2332.797154,921.641369 2337.438299,925.059852 2346.051578,913.518175 2350.348528,916.681387 2354.934113,910.529494 2389.942545,936.323488 2394.059531,930.801144 2399.688852,934.952149 2383.711833,956.378831 2360.550498,939.330764 2364.924065,933.477103 2350.567610,922.899791 2348.481236,925.694089 2345.760934,923.696256 2340.896444,930.212606 2344.071958,932.554479 2341.818235,935.569665 2376.560186,961.163887 2366.998576,973.964633 2334.788138,950.246103 2336.896808,947.429729 2330.223779,942.512891 2319.836505,956.440229 2287.093097,932.333246 2296.052213,920.338757"/>
    <poly id="312027794#1" type="tourism.hostel" color="207,245,201" fill="1" layer="-2.00" shape="2296.052213,920.338757 2323.554914,940.583307 2328.185088,934.387264 2292.943477,908.426799 2303.096432,894.819765 2335.173632,918.449448 2332.797154,921.641369 2337.438299,925.059852 2346.051578,913.518175 2350.348528,916.681387 2354.934113,910.529494 2389.942545,936.323488 2394.059531,930.801144 2399.688852,934.952149 2383.711833,956.378831 2360.550498,939.330764 2364.924065,933.477103 2350.567610,922.899791 2348.481236,925.694089 2345.760934,923.696256 2340.896444,930.212606 2344.071958,932.554479 2341.818235,935.569665 2376.560186,961.163887 2366.998576,973.964633 2334.788138,950.246103 2336.896808,947.429729 2330.223779,942.512891 2319.836505,956.440229 2287.093097,932.333246 2296.052213,920.338757"/>
    <poly id="312028066" type="building.yes" color="255,230,230" fill="1" layer="-1.00" shape="2370.254256,994.407186 2434.569203,1006.152011 2426.968789,1041.228904 2363.079010,1028.411864 2370.254256,994.407186"/>
    <poly id="312174955" type="building.education" color="255,230,230" fill="1" layer="-1.00" shape="2760.641391,1567.996032 2748.696998,1572.371546 2740.938606,1575.019811 2734.068619,1578.256540 2726.593846,1583.284207 2719.284536,1588.898648 2711.649916,1595.696164 2707.165640,1601.317207 2704.759840,1607.529494 2713.399729,1613.181211 2711.583431,1624.141288 2712.160469,1634.221847 2716.308447,1644.000964 2722.260957,1652.611527 2727.904812,1660.037532 2734.165249,1665.384967 2741.774236,1669.551719 2748.211309,1670.706350 2754.295731,1670.466106 2755.900191,1683.514196 2763.518878,1683.532010 2771.709660,1681.471149 2779.768347,1678.823593 2788.294866,1675.878405 2795.898244,1672.931059 2802.468632,1669.394911 2809.300420,1663.469571 2816.810583,1657.579008 2827.194542,1645.112142 2828.588721,1643.444753 2816.669629,1636.999816 2814.950811,1639.562622 2812.316844,1643.462021 2805.937417,1650.948431 2783.147074,1637.054198 2779.295284,1629.034928 2777.218154,1623.110884 2770.377265,1613.900788 2766.805623,1609.743475 2762.039744,1607.364659 2759.424423,1584.257121 2767.787318,1579.939621 2769.689806,1579.689599 2777.121725,1578.722284 2775.685434,1565.099264 2767.907486,1566.596837 2760.641391,1567.996032"/>
    <poly id="312175227" type="building.yes" color="255,230,230" fill="1" layer="-1.00" shape="2733.129190,975.581705 2742.561493,1027.758927 2803.383276,1016.051435 2795.130066,973.358702 2783.339831,964.081768 2733.129190,975.581705"/>
    <poly id="312175227#1" type="leisure.sports_centre" color="207,245,201" fill="1" layer="-2.00" shape="2733.129190,975.581705 2742.561493,1027.758927 2803.383276,1016.051435 2795.130066,973.358702 2783.339831,964.081768 2733.129190,975.581705"/>
    <poly id="312176016" type="building.yes" color="255,230,230" fill="1" layer="-1.00" shape="2854.330378,1170.257383 2868.628129,1182.140222 2856.666280,1193.972792 2790.032444,1189.314168 2776.764034,1174.822667 2793.491775,1165.368897 2807.347532,1166.485513 2854.330378,1170.257383"/>
    <poly id="312176033" type="building.yes" color="255,230,230" fill="1" layer="-1.00" shape="2867.346635,1216.512790 2855.393298,1229.462832 2793.331359,1234.064292 2782.614841,1222.245146 2795.949671,1208.291514 2853.060013,1204.629975 2867.346635,1216.512790"/>
    <poly id="312176963" type="man_made.reservoir_covered" color="255,230,230" fill="1" layer="-1.00" shape="2498.571276,1094.845434 2494.290104,1094.459278 2490.105859,1095.434206 2486.162845,1097.892256 2483.284803,1101.536625 2481.817551,1105.925563 2481.929111,1110.550524 2483.609624,1114.869356 2486.671199,1118.372681 2490.736687,1120.628130 2495.328377,1121.402246 2499.912685,1120.572082 2503.665745,1118.489762 2506.564872,1115.343317 2508.342359,1111.464040 2508.797156,1107.216571 2507.905984,1103.043410 2505.734624,1099.354074 2502.515764,1096.525278 2498.571276,1094.845434"/>
    <poly id="312177000" type="leisure.pitch" color="207,245,201" fill="1" layer="-2.00" shape="2625.820999,956.644482 2545.156834,978.019900 2575.623256,1091.407252 2656.287383,1070.031912 2625.820999,956.644482"/>
    <poly id="312177000#1" type="sport.soccer" color="79,230,125" fill="1" layer="-2.00" shape="2625.820999,956.644482 2545.156834,978.019900 2575.623256,1091.407252 2656.287383,1070.031912 2625.820999,956.644482"/>
    <poly id="345144858" type="building.yes" color="255,230,230" fill="1" layer="-1.00" shape="868.019247,1614.126478 868.040749,1590.494344 871.610923,1590.502633 871.625975,1579.228699 944.820348,1579.299078 944.811683,1592.608764 948.092711,1592.605320 948.065467,1613.914064 938.022240,1613.901803 938.020386,1619.488998 921.203814,1619.472071 921.213635,1605.664521 896.322439,1605.639912 896.305969,1617.522350 878.210343,1617.513523 878.218178,1614.139095 868.019247,1614.126478"/>
    <poly id="348054778" type="building.education" color="255,230,230" fill="1" layer="-1.00" shape="2713.834951,1584.006732 2752.411023,1558.439713 2731.041718,1526.614253 2708.294880,1541.685444 2704.759185,1536.421831 2709.448913,1533.312771 2699.661946,1518.774071 2759.926842,1478.741878 2755.259457,1458.008287 2743.079430,1448.984878 2680.584545,1491.390614 2670.674940,1476.973337 2733.270075,1434.501444 2728.194990,1416.886926 2712.076770,1408.252625 2631.616262,1461.558612 2713.834951,1584.006732"/>
    <poly id="351639477" type="building.yes" color="255,230,230" fill="1" layer="-1.00" shape="2594.633510,670.592421 2641.428331,664.428231 2644.587437,688.134444 2669.331070,684.872942 2663.602762,642.053396 2661.239728,639.470003 2579.061542,647.034323 2575.975188,649.383740 2576.915825,656.201285 2594.633510,670.592421"/>
    <poly id="351639478" type="building.yes" color="255,230,230" fill="1" layer="-1.00" shape="2669.202831,758.978590 2682.360402,759.031390 2682.181074,802.556327 2669.023507,802.503523 2669.202831,758.978590"/>
    <poly id="351639480" type="building.yes" color="255,230,230" fill="1" layer="-1.00" shape="2406.407379,700.690315 2421.783145,703.425703 2427.254724,684.574541 2411.878954,681.839154 2406.407379,700.690315"/>
    <poly id="351639481" type="building.yes" color="255,230,230" fill="1" layer="-1.00" shape="2325.808966,808.485999 2346.293072,800.280054 2342.291593,784.858769 2320.728348,793.183906 2325.808966,808.485999"/>
    <poly id="351639482" type="building.yes" color="255,230,230" fill="1" layer="-1.00" shape="2309.019012,777.811063 2360.358248,773.560374 2359.461716,723.914710 2306.429440,724.432953 2309.019012,777.811063"/>
    <poly id="351639483" type="building.yes" color="255,230,230" fill="1" layer="-1.00" shape="2318.368979,765.142578 2349.795651,762.471911 2349.008767,732.608700 2316.894106,734.591813 2318.368979,765.142578"/>
    <poly id="351639487" type="building.yes" color="255,230,230" fill="1" layer="-1.00" shape="2463.965940,996.362620 2508.235117,1000.050517 2509.641995,983.391593 2465.372811,979.703701 2463.965940,996.362620"/>
    <poly id="351639488" type="building.yes" color="255,230,230" fill="1" layer="-1.00" shape="2407.222345,976.315393 2456.405522,980.877698 2457.842739,965.513324 2408.659556,960.951024 2407.222345,976.315393"/>
    <poly id="351639489" type="building.yes" color="255,230,230" fill="1" layer="-1.00" shape="2470.473792,971.937685 2512.523051,973.684223 2513.170340,958.428641 2471.121076,956.682107 2470.473792,971.937685"/>
    <poly id="351639490" type="building.yes" color="255,230,230" fill="1" layer="-1.00" shape="2409.783740,955.820006 2426.066659,955.857951 2426.118894,933.442665 2409.835972,933.404723 2409.783740,955.820006"/>
    <poly id="351639491" type="building.yes" color="255,230,230" fill="1" layer="-1.00" shape="2268.378768,1240.705877 2303.803621,1240.478671 2303.672144,1220.541280 2268.247286,1220.768491 2268.378768,1240.705877"/>
    <poly id="351639492" type="building.yes" color="255,230,230" fill="1" layer="-1.00" shape="2249.570575,1207.514709 2268.233356,1207.657781 2268.326965,1215.214618 2318.004811,1217.443619 2318.794071,1193.768786 2292.044192,1194.148985 2287.728649,1189.425720 2270.512210,1189.086868 2270.576545,1161.482682 2248.943077,1161.786310 2249.570575,1207.514709"/>
    <poly id="351639494" type="building.yes" color="255,230,230" fill="1" layer="-1.00" shape="2348.553387,1243.105569 2373.839111,1241.018140 2372.702473,1227.639270 2347.427844,1229.737791 2348.553387,1243.105569"/>
    <poly id="351639495" type="amenity.parking" color="184,184,179" fill="1" layer="-1.00" shape="2153.070456,1252.032062 2227.974069,1249.230445 2224.833151,1136.593041 2151.667416,1138.159615 2153.070456,1252.032062"/>
    <poly id="351639496" type="amenity.clinic" color="237,199,199" fill="1" layer="-1.00" shape="2357.072114,1148.086798 2369.272306,1148.480347 2369.128677,1152.839177 2380.150020,1153.185723 2380.330034,1147.532505 2391.028835,1147.878300 2391.520053,1132.777261 2401.507113,1133.088205 2402.358204,1106.747110 2375.622300,1105.888186 2375.694527,1103.531750 2383.390545,1103.782031 2383.893680,1088.338040 2374.851952,1088.051432 2354.232845,1087.383796 2353.501114,1110.240043 2358.294444,1110.395046 2357.072114,1148.086798"/>
    <poly id="351639496#1" type="building.yes" color="255,230,230" fill="1" layer="-1.00" shape="2357.072114,1148.086798 2369.272306,1148.480347 2369.128677,1152.839177 2380.150020,1153.185723 2380.330034,1147.532505 2391.028835,1147.878300 2391.520053,1132.777261 2401.507113,1133.088205 2402.358204,1106.747110 2375.622300,1105.888186 2375.694527,1103.531750 2383.390545,1103.782031 2383.893680,1088.338040 2374.851952,1088.051432 2354.232845,1087.383796 2353.501114,1110.240043 2358.294444,1110.395046 2357.072114,1148.086798"/>
    <poly id="374078116" type="building.yes" color="255,230,230" fill="1" layer="-1.00" shape="2399.825877,775.865059 2428.645017,775.312604 2426.867039,745.978135 2403.142519,746.265863 2398.725568,751.643683 2399.825877,775.865059"/>
    <poly id="374078117" type="building.yes" color="255,230,230" fill="1" layer="-1.00" shape="2225.543744,798.029563 2267.931950,792.729071 2289.370584,818.812251 2294.717917,824.655357 2299.798959,830.221248 2310.852215,821.650363 2314.258620,825.143412 2320.554550,820.057631 2310.597036,811.825057 2302.992318,815.347786 2280.220077,784.028290 2278.116849,779.730615 2275.889860,776.041165 2275.460188,740.834956 2233.687674,749.201583 2236.330587,760.559253 2259.741133,756.575434 2264.367495,780.683292 2234.039733,784.308026 2233.247097,780.798938 2227.610500,784.547530 2225.543744,798.029563"/>
    <poly id="374078119" type="building.yes" color="255,230,230" fill="1" layer="-1.00" shape="2388.033738,791.271696 2441.767062,785.831722 2438.688094,732.485612 2419.234817,732.650521 2422.557564,714.756913 2371.698764,708.498040 2366.488781,758.306511 2386.346922,760.997018 2388.033738,791.271696"/>
    <poly id="374078120" type="building.yes" color="255,230,230" fill="1" layer="-1.00" shape="2380.404043,748.204409 2394.761965,748.614016 2406.554604,742.545285 2407.918755,725.111799 2383.255852,722.387977 2380.404043,748.204409"/>