<?xml version="1.0" encoding="UTF-8"?>

<!-- generated on 2022-04-01 03:12:09 by Eclipse SUMO netedit Version 1.11.0
<configuration xmlns:xsi="http://www.w3.org/2001/XMLSchema-instance" xsi:noNamespaceSchemaLocation="http://sumo.dlr.de/xsd/netconvertConfiguration.xsd">

    <input>
        <sumo-net-file value="/home/veins/workspace.omnetpp/V2X-TLS/osm.net.xml"/>
    </input>

    <output>
        <output-file value="/home/veins/workspace.omnetpp/V2X-TLS/osm.net.xml"/>
        <output.street-names value="true"/>
    </output>

    <processing>
        <geometry.min-radius.fix.railways value="false"/>
        <geometry.max-grade.fix value="false"/>
        <offset.disable-normalization value="true"/>
        <lefthand value="false"/>
    </processing>

    <junctions>
        <no-turnarounds value="true"/>
        <junctions.corner-detail value="5"/>
        <junctions.limit-turn-speed value="5.5"/>
        <rectangular-lane-cut value="false"/>
    </junctions>

    <pedestrian>
        <walkingareas value="false"/>
    </pedestrian>

    <report>
        <aggregate-warnings value="5"/>
    </report>

</configuration>
-->

<net version="1.9" junctionCornerDetail="5" limitTurnSpeed="5.50" xmlns:xsi="http://www.w3.org/2001/XMLSchema-instance" xsi:noNamespaceSchemaLocation="http://sumo.dlr.de/xsd/net_file.xsd">

    <location netOffset="-774803.50,-338341.47" convBoundary="0.00,0.00,5134.07,2233.66" origBoundary="101.439834,2.973977,101.619476,3.145025" projParameter="+proj=utm +zone=47 +ellps=WGS84 +datum=WGS84 +units=m +no_defs"/>

    <type id="highway.bridleway" priority="1" numLanes="1" speed="2.78" allow="pedestrian" oneway="1" width="2.00"/>
    <type id="highway.bus_guideway" priority="1" numLanes="1" speed="27.78" allow="bus" oneway="1"/>
    <type id="highway.cycleway" priority="1" numLanes="1" speed="8.33" allow="bicycle" oneway="0" width="1.00"/>
    <type id="highway.footway" priority="1" numLanes="1" speed="2.78" allow="pedestrian" oneway="1" width="2.00"/>
    <type id="highway.ford" priority="1" numLanes="1" speed="2.78" allow="army" oneway="0"/>
    <type id="highway.living_street" priority="2" numLanes="1" speed="2.78" disallow="tram rail_urban rail rail_electric rail_fast ship" oneway="0"/>
    <type id="highway.motorway" priority="14" numLanes="2" speed="39.44" allow="private emergency authority army vip passenger hov taxi bus coach delivery truck trailer motorcycle evehicle custom1 custom2" oneway="1"/>
    <type id="highway.motorway_link" priority="9" numLanes="1" speed="22.22" allow="private emergency authority army vip passenger hov taxi bus coach delivery truck trailer motorcycle evehicle custom1 custom2" oneway="1"/>
    <type id="highway.path" priority="1" numLanes="1" speed="2.78" allow="pedestrian bicycle" oneway="0" width="2.00"/>
    <type id="highway.pedestrian" priority="1" numLanes="1" speed="2.78" allow="pedestrian" oneway="1" width="2.00"/>
    <type id="highway.primary" priority="12" numLanes="2" speed="27.78" disallow="tram rail_urban rail rail_electric rail_fast ship" oneway="0"/>
    <type id="highway.primary_link" priority="7" numLanes="1" speed="22.22" disallow="tram rail_urban rail rail_electric rail_fast ship" oneway="0"/>
    <type id="highway.raceway" priority="15" numLanes="2" speed="83.33" allow="vip" oneway="0"/>
    <type id="highway.residential" priority="3" numLanes="1" speed="13.89" disallow="tram rail_urban rail rail_electric rail_fast ship" oneway="0"/>
    <type id="highway.secondary" priority="11" numLanes="1" speed="27.78" disallow="tram rail_urban rail rail_electric rail_fast ship" oneway="0"/>
    <type id="highway.secondary_link" priority="6" numLanes="1" speed="22.22" disallow="tram rail_urban rail rail_electric rail_fast ship" oneway="0"/>
    <type id="highway.service" priority="1" numLanes="1" speed="5.56" allow="pedestrian delivery bicycle" oneway="0"/>
    <type id="highway.stairs" priority="1" numLanes="1" speed="1.39" allow="pedestrian" oneway="1" width="2.00"/>
    <type id="highway.step" priority="1" numLanes="1" speed="1.39" allow="pedestrian" oneway="1" width="2.00"/>
    <type id="highway.steps" priority="1" numLanes="1" speed="1.39" allow="pedestrian" oneway="1" width="2.00"/>
    <type id="highway.tertiary" priority="10" numLanes="1" speed="22.22" disallow="tram rail_urban rail rail_electric rail_fast ship" oneway="0"/>
    <type id="highway.tertiary_link" priority="5" numLanes="1" speed="22.22" disallow="tram rail_urban rail rail_electric rail_fast ship" oneway="0"/>
    <type id="highway.track" priority="1" numLanes="1" speed="5.56" allow="pedestrian motorcycle moped bicycle" oneway="0"/>
    <type id="highway.trunk" priority="13" numLanes="2" speed="27.78" disallow="pedestrian bicycle tram rail_urban rail rail_electric rail_fast ship" oneway="0"/>
    <type id="highway.trunk_link" priority="8" numLanes="1" speed="22.22" disallow="pedestrian bicycle tram rail_urban rail rail_electric rail_fast ship" oneway="0"/>
    <type id="highway.unclassified" priority="4" numLanes="1" speed="13.89" disallow="tram rail_urban rail rail_electric rail_fast ship" oneway="0"/>
    <type id="highway.unsurfaced" priority="1" numLanes="1" speed="8.33" disallow="tram rail_urban rail rail_electric rail_fast ship" oneway="0"/>
    <type id="railway.highspeed" priority="21" numLanes="1" speed="69.44" allow="rail_fast" oneway="1"/>
    <type id="railway.light_rail" priority="19" numLanes="1" speed="27.78" allow="rail_urban" oneway="1"/>
    <type id="railway.preserved" priority="16" numLanes="1" speed="27.78" allow="rail" oneway="1"/>
    <type id="railway.rail" priority="20" numLanes="1" speed="44.44" allow="rail" oneway="1"/>
    <type id="railway.subway" priority="18" numLanes="1" speed="27.78" allow="rail_urban" oneway="1"/>
    <type id="railway.tram" priority="17" numLanes="1" speed="13.89" allow="tram" oneway="1"/>

    <edge id=":144086299_0" function="internal">
        <lane id=":144086299_0_0" index="0" disallow="tram rail_urban rail rail_electric rail_fast ship" speed="6.49" length="9.31" shape="1332.37,1233.37 1330.05,1232.11 1327.94,1231.90 1326.05,1232.72 1324.39,1234.58"/>
    </edge>
    <edge id=":144086299_1" function="internal">
        <lane id=":144086299_1_0" index="0" disallow="tram rail_urban rail rail_electric rail_fast ship" speed="7.76" length="14.78" shape="1332.37,1233.37 1329.41,1230.48 1328.25,1227.44 1328.89,1224.25 1331.33,1220.92"/>
    </edge>
    <edge id=":144086299_2" function="internal">
        <lane id=":144086299_2_0" index="0" disallow="tram rail_urban rail rail_electric rail_fast ship" speed="3.65" length="4.67" shape="1332.37,1233.37 1331.87,1232.01 1332.02,1231.13 1332.81,1230.72 1334.25,1230.78"/>
    </edge>
    <edge id=":144086299_3" function="internal">
        <lane id=":144086299_3_0" index="0" disallow="tram rail_urban rail rail_electric rail_fast ship" speed="6.21" length="9.05" shape="1333.62,1223.15 1332.12,1225.20 1331.73,1227.15 1332.44,1229.01 1334.25,1230.78"/>
    </edge>
    <edge id=":144086299_4" function="internal">
        <lane id=":144086299_4_0" index="0" disallow="tram rail_urban rail rail_electric rail_fast ship" speed="13.89" length="14.71" shape="1333.62,1223.15 1331.08,1225.86 1328.72,1228.64 1326.49,1231.53 1324.39,1234.58"/>
    </edge>
    <edge id=":144086299_5" function="internal">
        <lane id=":144086299_5_0" index="0" disallow="tram rail_urban rail rail_electric rail_fast ship" speed="3.65" length="2.34" shape="1333.62,1223.15 1332.20,1223.45 1331.35,1223.18"/>
    </edge>
    <edge id=":144086299_9" function="internal">
        <lane id=":144086299_9_0" index="0" disallow="tram rail_urban rail rail_electric rail_fast ship" speed="3.65" length="2.34" shape="1331.35,1223.18 1331.06,1222.33 1331.33,1220.92"/>
    </edge>
    <edge id=":144086299_6" function="internal">
        <lane id=":144086299_6_0" index="0" disallow="tram rail_urban rail rail_electric rail_fast ship" speed="13.89" length="15.33" shape="1321.71,1232.83 1323.88,1229.70 1326.23,1226.64 1328.74,1223.69 1331.33,1220.92"/>
    </edge>
    <edge id=":144086299_7" function="internal">
        <lane id=":144086299_7_0" index="0" disallow="tram rail_urban rail rail_electric rail_fast ship" speed="7.98" length="6.32" shape="1321.71,1232.83 1324.35,1229.86 1326.50,1228.90"/>
    </edge>
    <edge id=":144086299_8" function="internal">
        <lane id=":144086299_8_0" index="0" disallow="tram rail_urban rail rail_electric rail_fast ship" speed="3.65" length="2.34" shape="1321.71,1232.83 1323.04,1232.26 1323.93,1232.36"/>
    </edge>
    <edge id=":144086299_10" function="internal">
        <lane id=":144086299_10_0" index="0" disallow="tram rail_urban rail rail_electric rail_fast ship" speed="7.98" length="8.34" shape="1326.50,1228.90 1327.32,1228.53 1330.62,1228.84 1334.25,1230.78"/>
    </edge>
    <edge id=":144086299_11" function="internal">
        <lane id=":144086299_11_0" index="0" disallow="tram rail_urban rail rail_electric rail_fast ship" speed="3.65" length="2.34" shape="1323.93,1232.36 1324.38,1233.14 1324.39,1234.58"/>
    </edge>
    <edge id=":144086591_0" function="internal">
        <lane id=":144086591_0_0" index="0" disallow="tram rail_urban rail rail_electric rail_fast ship" speed="7.33" length="10.26" shape="1053.43,965.13 1051.58,962.71 1049.54,961.27 1047.33,960.80 1044.93,961.30"/>
    </edge>
    <edge id=":144086591_1" function="internal">
        <lane id=":144086591_1_0" index="0" disallow="tram rail_urban rail rail_electric rail_fast ship" speed="7.62" length="15.28" shape="1053.43,965.13 1051.72,961.12 1051.91,957.85 1053.98,955.30 1057.94,953.49"/>
    </edge>
    <edge id=":144086591_2" function="internal">
        <lane id=":144086591_2_0" index="0" disallow="tram rail_urban rail rail_electric rail_fast ship" speed="3.65" length="4.67" shape="1053.43,965.13 1053.49,963.69 1053.97,962.94 1054.86,962.86 1056.17,963.48"/>
    </edge>
    <edge id=":144086591_3" function="internal">
        <lane id=":144086591_3_0" index="0" disallow="tram rail_urban rail rail_electric rail_fast ship" speed="6.02" length="9.08" shape="1058.85,956.56 1056.49,957.64 1055.26,959.15 1055.15,961.09 1056.17,963.48"/>
    </edge>
    <edge id=":144086591_4" function="internal">
        <lane id=":144086591_4_0" index="0" disallow="tram rail_urban rail rail_electric rail_fast ship" speed="13.89" length="14.71" shape="1058.85,956.56 1055.30,957.64 1051.83,958.77 1048.39,959.98 1044.93,961.30"/>
    </edge>
    <edge id=":144086591_5" function="internal">
        <lane id=":144086591_5_0" index="0" disallow="tram rail_urban rail rail_electric rail_fast ship" speed="3.65" length="2.34" shape="1058.85,956.56 1057.47,956.13 1056.86,955.48"/>
    </edge>
    <edge id=":144086591_9" function="internal">
        <lane id=":144086591_9_0" index="0" disallow="tram rail_urban rail rail_electric rail_fast ship" speed="3.65" length="2.34" shape="1056.86,955.48 1057.02,954.60 1057.94,953.49"/>
    </edge>
    <edge id=":144086591_6" function="internal">
        <lane id=":144086591_6_0" index="0" disallow="tram rail_urban rail rail_electric rail_fast ship" speed="13.89" length="15.00" shape="1043.74,958.33 1047.25,956.99 1050.79,955.75 1054.35,954.58 1057.94,953.49"/>
    </edge>
    <edge id=":144086591_7" function="internal">
        <lane id=":144086591_7_0" index="0" disallow="tram rail_urban rail rail_electric rail_fast ship" speed="8.70" length="5.82" shape="1043.74,958.33 1047.33,957.53 1049.44,957.91"/>
    </edge>
    <edge id=":144086591_8" function="internal">
        <lane id=":144086591_8_0" index="0" disallow="tram rail_urban rail rail_electric rail_fast ship" speed="3.65" length="2.34" shape="1043.74,958.33 1045.16,958.63 1045.82,959.22"/>
    </edge>
    <edge id=":144086591_10" function="internal">
        <lane id=":144086591_10_0" index="0" disallow="tram rail_urban rail rail_electric rail_fast ship" speed="8.70" length="9.00" shape="1049.44,957.91 1050.60,958.12 1053.54,960.10 1056.17,963.48"/>
    </edge>
    <edge id=":144086591_11" function="internal">
        <lane id=":144086591_11_0" index="0" disallow="tram rail_urban rail rail_electric rail_fast ship" speed="3.65" length="2.34" shape="1045.82,959.22 1045.75,960.11 1044.93,961.30"/>
    </edge>
    <edge id=":150062619_0" function="internal">
        <lane id=":150062619_0_0" index="0" disallow="pedestrian bicycle tram rail_urban rail rail_electric rail_fast ship" speed="27.78" length="44.23" shape="1752.96,531.75 1794.71,546.15"/>
        <lane id=":150062619_0_1" index="1" disallow="pedestrian bicycle tram rail_urban rail rail_electric rail_fast ship" speed="27.78" length="44.23" shape="1751.85,534.75 1793.66,549.18"/>
        <lane id=":150062619_0_2" index="2" disallow="pedestrian bicycle tram rail_urban rail rail_electric rail_fast ship" speed="27.78" length="44.23" shape="1750.75,537.75 1792.62,552.20"/>
    </edge>
    <edge id=":150062619_3" function="internal">
        <lane id=":150062619_3_0" index="0" disallow="pedestrian bicycle tram rail_urban rail rail_electric rail_fast ship" speed="25.00" length="44.24" shape="1749.64,540.75 1791.42,555.29"/>
    </edge>
    <edge id=":150062799_0" function="internal">
        <lane id=":150062799_0_0" index="0" disallow="tram rail_urban rail rail_electric rail_fast ship" speed="16.67" length="25.04" shape="2104.40,720.43 2105.70,745.42"/>
        <lane id=":150062799_0_1" index="1" disallow="tram rail_urban rail rail_electric rail_fast ship" speed="16.67" length="25.04" shape="2101.20,720.61 2102.51,745.64"/>
    </edge>
    <edge id=":150062799_2" function="internal">
        <lane id=":150062799_2_0" index="0" disallow="pedestrian bicycle tram rail_urban rail rail_electric rail_fast ship" speed="19.45" length="25.05" shape="2097.33,721.17 2098.54,725.65 2100.10,731.49 2101.57,738.29 2102.51,745.64"/>
    </edge>
    <edge id=":15172466#1-AddedOnRampNode_0" function="internal">
        <lane id=":15172466#1-AddedOnRampNode_0_0" index="0" disallow="pedestrian bicycle tram rail_urban rail rail_electric rail_fast ship" speed="22.22" length="8.00" shape="2308.43,576.51 2316.16,574.44"/>
    </edge>
    <edge id=":159590924_0" function="internal">
        <lane id=":159590924_0_0" index="0" disallow="pedestrian bicycle tram rail_urban rail rail_electric rail_fast ship" speed="22.22" length="9.79" shape="1972.36,626.42 1975.10,627.26 1977.07,627.45 1979.09,627.35 1982.01,627.31"/>
    </edge>
    <edge id=":159590924_1" function="internal">
        <lane id=":159590924_1_0" index="0" disallow="pedestrian bicycle tram rail_urban rail rail_electric rail_fast ship" speed="22.22" length="9.77" shape="1972.36,626.42 1975.03,627.53 1976.78,628.46 1978.48,629.51 1980.97,630.99"/>
    </edge>
    <edge id=":159591689_0" function="internal">
        <lane id=":159591689_0_0" index="0" disallow="pedestrian bicycle tram rail_urban rail rail_electric rail_fast ship" speed="22.22" length="3.14" shape="2215.57,606.60 2216.46,606.33 2217.07,606.14 2217.67,605.92 2218.54,605.58"/>
    </edge>
    <edge id=":159591689_1" function="internal">
        <lane id=":159591689_1_0" index="0" disallow="pedestrian bicycle tram rail_urban rail rail_electric rail_fast ship" speed="22.22" length="3.15" shape="2216.78,609.69 2219.71,608.56"/>
    </edge>
    <edge id=":163897623#1-AddedOffRampNode_0" function="internal">
        <lane id=":163897623#1-AddedOffRampNode_0_0" index="0" disallow="tram rail_urban rail rail_electric rail_fast ship" speed="27.78" length="8.93" shape="1658.19,1016.47 1655.45,1017.39 1654.05,1019.54 1652.64,1021.68 1649.90,1022.55"/>
        <lane id=":163897623#1-AddedOffRampNode_0_1" index="1" disallow="tram rail_urban rail rail_electric rail_fast ship" speed="27.78" length="8.93" shape="1658.19,1016.47 1655.71,1016.90 1654.12,1017.94 1652.54,1018.97 1650.05,1019.35"/>
        <lane id=":163897623#1-AddedOffRampNode_0_2" index="2" disallow="tram rail_urban rail rail_electric rail_fast ship" speed="27.78" length="8.93" shape="1658.19,1016.47 1650.20,1016.16"/>
        <lane id=":163897623#1-AddedOffRampNode_0_3" index="3" disallow="tram rail_urban rail rail_electric rail_fast ship" speed="27.78" length="8.93" shape="1658.34,1013.28 1650.35,1012.96"/>
    </edge>
    <edge id=":163897623#5-AddedOffRampNode_0" function="internal">
        <lane id=":163897623#5-AddedOffRampNode_0_0" index="0" disallow="tram rail_urban rail rail_electric rail_fast ship" speed="27.78" length="8.27" shape="1225.36,1013.36 1222.89,1013.82 1221.33,1014.89 1219.77,1015.96 1217.30,1016.41"/>
        <lane id=":163897623#5-AddedOffRampNode_0_1" index="1" disallow="tram rail_urban rail rail_electric rail_fast ship" speed="27.78" length="8.27" shape="1225.36,1013.36 1217.36,1013.22"/>
        <lane id=":163897623#5-AddedOffRampNode_0_2" index="2" disallow="tram rail_urban rail rail_electric rail_fast ship" speed="27.78" length="8.27" shape="1225.42,1010.17 1217.42,1010.02"/>
    </edge>
    <edge id=":163897702#9-AddedOnRampNode_0" function="internal">
        <lane id=":163897702#9-AddedOnRampNode_0_0" index="0" disallow="tram rail_urban rail rail_electric rail_fast ship" speed="27.78" length="8.00" shape="811.81,1173.86 805.18,1169.39"/>
        <lane id=":163897702#9-AddedOnRampNode_0_1" index="1" disallow="tram rail_urban rail rail_electric rail_fast ship" speed="27.78" length="8.00" shape="813.61,1171.21 806.97,1166.74"/>
    </edge>
    <edge id=":1712648532_0" function="internal">
        <lane id=":1712648532_0_0" index="0" disallow="tram rail_urban rail rail_electric rail_fast ship" speed="10.02" length="10.84" shape="2293.50,1042.11 2292.73,1040.41 2290.77,1037.57 2288.65,1034.77 2287.41,1033.18"/>
    </edge>
    <edge id=":1712648532_1" function="internal">
        <lane id=":1712648532_1_0" index="0" disallow="tram rail_urban rail rail_electric rail_fast ship" speed="7.83" length="6.34" shape="2295.80,1033.11 2293.75,1032.94 2292.09,1032.56 2290.82,1031.98 2289.93,1031.20"/>
    </edge>
    <edge id=":1712648544_0" function="internal">
        <lane id=":1712648544_0_0" index="0" disallow="tram rail_urban rail rail_electric rail_fast ship" speed="11.67" length="7.13" shape="2295.31,1057.28 2294.68,1055.24 2294.23,1053.80 2294.15,1052.36 2294.60,1050.36"/>
    </edge>
    <edge id=":1712648544_1" function="internal">
        <lane id=":1712648544_1_0" index="0" disallow="tram rail_urban rail rail_electric rail_fast ship" speed="13.77" length="11.54" shape="2287.49,1059.84 2289.55,1057.67 2290.37,1055.47 2290.76,1052.84 2291.55,1049.39"/>
    </edge>
    <edge id=":1712648547_0" function="internal">
        <lane id=":1712648547_0_0" index="0" disallow="tram rail_urban rail rail_electric rail_fast ship" speed="11.74" length="8.95" shape="2196.29,1023.20 2193.76,1024.01 2192.03,1024.73 2190.60,1025.86 2188.97,1027.89"/>
    </edge>
    <edge id=":1712648547_1" function="internal">
        <lane id=":1712648547_1_0" index="0" allow="pedestrian delivery bicycle" speed="13.89" length="8.71" shape="2193.30,1020.32 2188.97,1027.89"/>
    </edge>
    <edge id=":1712659858_0" function="internal">
        <lane id=":1712659858_0_0" index="0" allow="pedestrian delivery bicycle" speed="5.56" length="9.27" shape="2192.93,984.48 2194.97,985.77 2197.05,986.17 2199.17,985.68 2201.33,984.30"/>
    </edge>
    <edge id=":1712659858_1" function="internal">
        <lane id=":1712659858_1_0" index="0" allow="pedestrian delivery bicycle" speed="5.56" length="7.30" shape="2192.93,984.48 2195.50,986.61 2197.34,987.97 2198.44,988.54 2198.82,988.32"/>
    </edge>
    <edge id=":1712659858_2" function="internal">
        <lane id=":1712659858_2_0" index="0" allow="pedestrian delivery bicycle" speed="5.56" length="7.02" shape="2195.62,988.29 2196.40,987.34 2198.19,986.16 2200.11,985.06 2201.33,984.30"/>
    </edge>
    <edge id=":1712659858_3" function="internal">
        <lane id=":1712659858_3_0" index="0" allow="pedestrian delivery bicycle" speed="3.65" length="4.67" shape="2195.62,988.29 2196.43,987.10 2197.23,986.71 2198.03,987.12 2198.82,988.32"/>
    </edge>
    <edge id=":1712659865_0" function="internal">
        <lane id=":1712659865_0_0" index="0" allow="pedestrian delivery bicycle" speed="4.78" length="6.85" shape="2199.29,1017.63 2197.86,1015.82 2196.64,1015.23 2195.64,1015.87 2194.86,1017.72"/>
    </edge>
    <edge id=":1712659865_1" function="internal">
        <lane id=":1712659865_1_0" index="0" allow="pedestrian delivery bicycle" speed="5.56" length="9.59" shape="2199.29,1017.63 2197.37,1014.91 2195.58,1012.98 2193.91,1011.82 2192.36,1011.44"/>
    </edge>
    <edge id=":1712659865_2" function="internal">
        <lane id=":1712659865_2_0" index="0" allow="pedestrian delivery bicycle" speed="5.56" length="13.26" shape="2199.29,1017.63 2197.55,1014.60 2196.35,1011.68 2195.66,1008.61 2195.45,1005.15"/>
    </edge>
    <edge id=":1712659865_3" function="internal">
        <lane id=":1712659865_3_0" index="0" allow="pedestrian delivery bicycle" speed="5.56" length="13.18" shape="2198.65,1005.18 2198.23,1008.57 2197.23,1011.52 2196.00,1014.43 2194.86,1017.72"/>
    </edge>
    <edge id=":1712659865_4" function="internal">
        <lane id=":1712659865_4_0" index="0" allow="pedestrian delivery bicycle" speed="5.56" length="10.09" shape="2198.65,1005.18 2198.24,1007.91 2197.05,1009.86 2195.09,1011.04 2192.36,1011.44"/>
    </edge>
    <edge id=":1712659865_5" function="internal">
        <lane id=":1712659865_5_0" index="0" allow="pedestrian delivery bicycle" speed="3.65" length="4.67" shape="2198.65,1005.18 2197.84,1006.37 2197.04,1006.76 2196.24,1006.35 2195.45,1005.15"/>
    </edge>
    <edge id=":1712659865_6" function="internal">
        <lane id=":1712659865_6_0" index="0" allow="pedestrian delivery bicycle" speed="5.06" length="4.98" shape="2192.35,1008.24 2193.70,1008.04 2194.66,1007.46 2195.25,1006.49 2195.45,1005.15"/>
    </edge>
    <edge id=":1712659865_7" function="internal">
        <lane id=":1712659865_7_0" index="0" allow="pedestrian delivery bicycle" speed="5.56" length="11.45" shape="2192.35,1008.24 2194.42,1008.82 2195.53,1010.60 2195.67,1013.57 2194.86,1017.72"/>
    </edge>
    <edge id=":1712659865_8" function="internal">
        <lane id=":1712659865_8_0" index="0" allow="pedestrian delivery bicycle" speed="3.65" length="4.67" shape="2192.35,1008.24 2193.55,1009.03 2193.95,1009.83 2193.56,1010.63 2192.36,1011.44"/>
    </edge>
    <edge id=":1712659867_0" function="internal">
        <lane id=":1712659867_0_0" index="0" allow="pedestrian delivery bicycle" speed="5.56" length="7.77" shape="2181.58,1011.48 2180.22,1011.09 2179.24,1009.91 2178.66,1007.94 2178.47,1005.18"/>
    </edge>
    <edge id=":1712659867_1" function="internal">
        <lane id=":1712659867_1_0" index="0" allow="pedestrian delivery bicycle" speed="3.65" length="4.67" shape="2181.58,1011.48 2180.38,1010.68 2179.98,1009.88 2180.38,1009.08 2181.57,1008.28"/>
    </edge>
    <edge id=":1712659867_2" function="internal">
        <lane id=":1712659867_2_0" index="0" allow="pedestrian delivery bicycle" speed="5.56" length="9.33" shape="2178.25,1014.51 2178.47,1005.18"/>
    </edge>
    <edge id=":1712659867_3" function="internal">
        <lane id=":1712659867_3_0" index="0" allow="pedestrian delivery bicycle" speed="5.56" length="7.74" shape="2178.25,1014.51 2178.56,1011.79 2179.22,1009.84 2180.22,1008.67 2181.57,1008.28"/>
    </edge>
    <edge id=":1712659881_0" function="internal">
        <lane id=":1712659881_0_0" index="0" allow="pedestrian delivery bicycle" speed="5.56" length="7.13" shape="2207.41,979.55 2206.42,978.75 2205.18,976.98 2204.02,975.04 2203.29,973.80"/>
    </edge>
    <edge id=":1712659881_1" function="internal">
        <lane id=":1712659881_1_0" index="0" allow="pedestrian delivery bicycle" speed="3.65" length="4.67" shape="2207.41,979.55 2206.23,978.71 2205.86,977.90 2206.28,977.11 2207.50,976.35"/>
    </edge>
    <edge id=":1712659881_2" function="internal">
        <lane id=":1712659881_2_0" index="0" allow="pedestrian delivery bicycle" speed="5.56" length="8.79" shape="2203.50,982.16 2204.36,979.97 2204.62,977.85 2204.26,975.79 2203.29,973.80"/>
    </edge>
    <edge id=":1712659881_3" function="internal">
        <lane id=":1712659881_3_0" index="0" allow="pedestrian delivery bicycle" speed="5.56" length="7.13" shape="2203.50,982.16 2204.18,980.87 2205.30,978.91 2206.52,977.12 2207.50,976.35"/>
    </edge>
    <edge id=":1712667769_0" function="internal">
        <lane id=":1712667769_0_0" index="0" allow="pedestrian delivery bicycle" speed="5.56" length="6.64" shape="2266.58,892.28 2265.13,890.98 2263.97,890.31 2262.69,889.79 2260.91,888.94"/>
    </edge>
    <edge id=":1712667769_1" function="internal">
        <lane id=":1712667769_1_0" index="0" allow="pedestrian delivery bicycle" speed="3.65" length="2.23" shape="2266.58,892.28 2266.31,890.86 2266.57,890.12"/>
    </edge>
    <edge id=":1712667769_4" function="internal">
        <lane id=":1712667769_4_0" index="0" allow="pedestrian delivery bicycle" speed="3.65" length="2.45" shape="2266.57,890.12 2266.61,890.02 2267.46,889.75 2268.87,890.05"/>
    </edge>
    <edge id=":1712667769_2" function="internal">
        <lane id=":1712667769_2_0" index="0" allow="pedestrian delivery bicycle" speed="5.56" length="7.60" shape="2262.44,886.13 2264.47,887.12 2265.91,887.75 2267.23,888.55 2268.87,890.05"/>
    </edge>
    <edge id=":1712667769_3" function="internal">
        <lane id=":1712667769_3_0" index="0" allow="pedestrian delivery bicycle" speed="3.65" length="2.34" shape="2262.44,886.13 2263.11,887.40 2263.08,888.30"/>
    </edge>
    <edge id=":1712667769_5" function="internal">
        <lane id=":1712667769_5_0" index="0" allow="pedestrian delivery bicycle" speed="3.65" length="2.34" shape="2263.08,888.30 2262.34,888.81 2260.91,888.94"/>
    </edge>
    <edge id=":1712667773_0" function="internal">
        <lane id=":1712667773_0_0" index="0" allow="pedestrian delivery bicycle" speed="3.65" length="4.67" shape="2271.90,865.19 2272.52,866.49 2272.46,867.39 2271.70,867.87 2270.26,867.95"/>
    </edge>
    <edge id=":1712667778_0" function="internal">
        <lane id=":1712667778_0_0" index="0" disallow="tram rail_urban rail rail_electric rail_fast ship" speed="8.33" length="9.13" shape="2464.09,886.41 2456.65,891.72"/>
    </edge>
    <edge id=":1712667778_1" function="internal">
        <lane id=":1712667778_1_0" index="0" allow="pedestrian delivery bicycle" speed="6.86" length="4.89" shape="2464.09,886.41 2461.58,887.63 2459.48,887.74"/>
    </edge>
    <edge id=":1712667778_2" function="internal">
        <lane id=":1712667778_2_0" index="0" disallow="tram rail_urban rail rail_electric rail_fast ship" speed="3.65" length="2.34" shape="2464.09,886.41 2462.65,886.42 2461.87,885.98"/>
    </edge>
    <edge id=":1712667778_9" function="internal">
        <lane id=":1712667778_9_0" index="0" allow="pedestrian delivery bicycle" speed="6.86" length="5.27" shape="2459.48,887.74 2459.29,887.75 2457.21,886.78 2455.35,884.72"/>
    </edge>
    <edge id=":1712667778_10" function="internal">
        <lane id=":1712667778_10_0" index="0" disallow="tram rail_urban rail rail_electric rail_fast ship" speed="3.65" length="2.34" shape="2461.87,885.98 2461.75,885.09 2462.30,883.76"/>
    </edge>
    <edge id=":1712667778_3" function="internal">
        <lane id=":1712667778_3_0" index="0" allow="pedestrian delivery bicycle" speed="5.04" length="5.00" shape="2458.00,882.92 2458.92,883.94 2459.94,884.42 2461.07,884.36 2462.30,883.76"/>
    </edge>
    <edge id=":1712667778_4" function="internal">
        <lane id=":1712667778_4_0" index="0" allow="pedestrian delivery bicycle" speed="6.95" length="10.03" shape="2458.00,882.92 2459.22,885.40 2459.40,887.70 2458.55,889.80 2456.65,891.72"/>
    </edge>
    <edge id=":1712667778_5" function="internal">
        <lane id=":1712667778_5_0" index="0" allow="pedestrian delivery bicycle" speed="3.65" length="4.67" shape="2458.00,882.92 2458.01,884.37 2457.57,885.15 2456.68,885.26 2455.35,884.72"/>
    </edge>
    <edge id=":1712667778_6" function="internal">
        <lane id=":1712667778_6_0" index="0" allow="pedestrian delivery bicycle" speed="5.16" length="5.07" shape="2454.72,889.17 2455.66,888.21 2456.08,887.15 2455.97,885.98 2455.35,884.72"/>
    </edge>
    <edge id=":1712667778_7" function="internal">
        <lane id=":1712667778_7_0" index="0" disallow="tram rail_urban rail rail_electric rail_fast ship" speed="8.33" length="9.31" shape="2454.72,889.17 2462.30,883.76"/>
    </edge>
    <edge id=":1712667778_8" function="internal">
        <lane id=":1712667778_8_0" index="0" disallow="tram rail_urban rail rail_electric rail_fast ship" speed="3.65" length="2.34" shape="2454.72,889.17 2456.16,889.08 2456.96,889.48"/>
    </edge>
    <edge id=":1712667778_11" function="internal">
        <lane id=":1712667778_11_0" index="0" disallow="tram rail_urban rail rail_electric rail_fast ship" speed="3.65" length="2.34" shape="2456.96,889.48 2457.13,890.36 2456.65,891.72"/>
    </edge>
    <edge id=":1712667805_0" function="internal">
        <lane id=":1712667805_0_0" index="0" disallow="tram rail_urban rail rail_electric rail_fast ship" speed="7.27" length="7.74" shape="2557.90,718.90 2555.58,718.93 2553.68,719.40 2552.19,720.31 2551.12,721.66"/>
    </edge>
    <edge id=":1712667805_1" function="internal">
        <lane id=":1712667805_1_0" index="0" disallow="tram rail_urban rail rail_electric rail_fast ship" speed="6.19" length="10.72" shape="2557.90,718.90 2554.35,718.26 2552.27,716.99 2551.65,715.09 2552.49,712.55"/>
    </edge>
    <edge id=":1712667805_2" function="internal">
        <lane id=":1712667805_2_0" index="0" disallow="tram rail_urban rail rail_electric rail_fast ship" speed="8.33" length="8.64" shape="2555.30,714.09 2551.12,721.66"/>
    </edge>
    <edge id=":1712667805_3" function="internal">